Core,ligand-designer_replace-H2O
                    3D
 Schrodinger Suite 2020-1.
 18 18  0  0  1  0            999 V2000
   -1.9092    1.3914    0.0000 C   0  0  0  0  0  0
   -2.6131    2.5521    0.0000 N   0  0  0  0  0  0
   -1.9143    3.7149    0.0000 C   0  0  0  0  0  0
   -0.5201    3.7604   -0.0000 C   0  0  0  0  0  0
    0.1861    2.5558   -0.0000 C   0  0  0  0  0  0
   -0.5121    1.3343    0.0000 C   0  0  0  0  0  0
    0.0776    0.0862    0.0000 O   0  0  0  0  0  0
    1.4964    0.0070   -0.0000 C   0  0  0  0  0  0
   -2.4954    4.6255    0.0000 H   0  0  0  0  0  0
    0.0014    4.7065   -0.0000 H   0  0  0  0  0  0
    1.2654    2.5885   -0.0000 H   0  0  0  0  0  0
    1.9622    0.4017   -0.9046 H   0  0  0  0  0  0
    1.9622    0.4017    0.9046 H   0  0  0  0  0  0
   -2.4942    0.4833    0.0000 H   0  0  0  0  0  0
    1.8093   -1.4896   -0.0000 N   0  3  0  0  0  0
    2.8082   -1.6381    0.0000 H   0  0  0  0  0  0
    1.4147   -1.9255   -0.8213 H   0  0  0  0  0  0
    1.4147   -1.9255    0.8213 H   0  0  0  0  0  0
  1  2  1  0  0  0
  1  6  2  0  0  0
  1 14  1  0  0  0
  2  3  2  0  0  0
  3  4  1  0  0  0
  3  9  1  0  0  0
  4  5  2  0  0  0
  4 10  1  0  0  0
  5  6  1  0  0  0
  5 11  1  0  0  0
  6  7  1  0  0  0
  7  8  1  0  0  0
  8 12  1  0  0  0
  8 13  1  0  0  0
  8 15  1  0  0  0
 15 16  1  0  0  0
 15 17  1  0  0  0
 15 18  1  0  0  0
M  CHG  1  15   1
M  END
> <i_m_ct_stereo_status>
1

> <i_m_stars>
0

> <s_m_entry_id>
18504

> <s_m_entry_name>
Structure11785

> <s_pdb_PDB_TITLE>
P38 KINASE CRYSTAL STRUCTURE IN COMPLEX WITH SMALL MOLECULE INHIBITOR

> <s_pdb_PDB_ID>
1W7H

> <i_pdb_PDB_Model>
1

> <r_pdb_PDB_CRYST1_a>
45.771

> <r_pdb_PDB_CRYST1_b>
87.101

> <r_pdb_PDB_CRYST1_c>
126.337

> <r_pdb_PDB_CRYST1_alpha>
90

> <r_pdb_PDB_CRYST1_beta>
90

> <r_pdb_PDB_CRYST1_gamma>
90

> <s_pdb_PDB_CRYST1_Space_Group>
P 21 21 21

> <i_pdb_PDB_CRYST1_z>
4

> <s_pdb_PDB_CLASSIFICATION>
TRANSFERASE

> <s_pdb_PDB_DEPOSITION_DATE>
02-SEP-04

> <s_pdb_PDB_format_version>
3.0

> <r_pdb_PDB_RESOLUTION>
2.21

> <s_pdb_PDB_EXPDTA>
X-RAY DIFFRACTION

> <r_pdb_PDB_EXPDTA_TEMPERATURE>
100

> <r_pdb_PDB_EXPDTA_PH>
7

> <s_pdb_PDB_REMARK_350_Biomolecule_1_Transform_1_Chains>
A

> <s_pdb_PDB_REMARK_350_Biomolecule_1_Transform_1_Matrix_1>
1.000000 0.000000 0.000000   0.000000;0.000000 1.000000 0.000000   0.000000;0.000000 0.000000 1.000000   0.000000

> <s_m_Source_Path>
/scratch/alberto/systems/Trials

> <s_m_Source_File>
1w7h_prep.pdb

> <i_m_Source_File_Index>
1

> <s_m_source_file>
ReplaceWaterV2_9.maegz

> <i_m_source_file_index>
1

> <i_lp_mmshare_version>
49012

> <i_f3d_flags>
0

> <s_epik_input>
W05IMl1bQ0gyXU9jMVtjSF1uW2NIXVtjSF1bY0hdMQ==

> <s_epik_cmdline>
J2VwaWtfcHl0aG9uJywgJy1waCcsICc3LjAnLCAnLXRuJywgJzgnLCAnLW1hJywgJzIwMCcsICctaW1hZScsICc8aW5maWxlLm1hZT4nLCAnLW9tYWUnLCAnPG91dGZpbGUubWFlPic=

> <r_epik_Ionization_Penalty>
  0.3356

> <r_epik_Ionization_Penalty_Charging>
  0.3345

> <r_epik_Ionization_Penalty_Neutral>
  0.0011

> <r_epik_State_Penalty>
  0.3300

> <r_epik_Charging_Adjusted_Penalty>
0.664538878348969

> <i_epik_Tot_Q>
1

> <i_epik_Tot_abs_Q>
1

> <s_lp_Force_Field>
OPLS3e

> <r_lp_Energy>
15.960406

> <b_lp_Chiralities_Consistent>
1

> <s_lp_Variant>
Core,ligand-designer_replace-H2O-1

> <s_m_job_name>
ReplaceWaterV2_9

> <r_lp_tautomer_probability>
1

> <s_epik_Chemistry_Notes>
This compound contains an acetal/aminal-like group ( X-CH(R)-Y where X, Y are N, S, or O) that may be acid/base labile, releasing an aldehyde.

> <i_rge_num_r_groups>
1

> <r_rge_occupation_R1>
1

> <s_rge_R1>
ligand-designer_replace-H2O

> <s_rge_R1_s_m_title>
ligand-designer_replace-H2O

> <s_rge_R1_s_m_entry_id>
25669

> <s_rge_R1_s_m_entry_name>
ligand-designer_replace-H2O.smi-ligprep.1

> <s_rge_R1_s_m_smiles>
[*]N

> <s_rge_R1_s_m_Source_File>
ligand-designer_replace-H2O.maegz-dedup.maegz-names.maegz

> <i_rge_R1_i_m_Source_File_Index>
1

> <s_rge_R1_s_m_Source_Path>
/Users/konze/projects/pathfinder/r-groups/final-r-groups

> <s_rge_R1_s_canvas_Unique_SMILES_Stereo>
NCl

> <i_rge_R1_i_lp_mmshare_version>
42013

> <i_rge_R1_i_f3d_flags>
0

> <i_rge_R1_i_m_stars>
0

> <s_rge_R1_s_m_subgroup_title>
ligand-designer_replace-H2O

> <s_rge_R1_s_m_subgroupid>
ligand-designer_replace-H2O.smi-ligprep111

> <b_rge_R1_b_m_subgroup_collapsed>
1

> <s_rge_R1_s_epik_input>
Q2xbQ0hdMVtDSDJdW05IXVtDSDJdMQ==

> <s_rge_R1_s_epik_cmdline>
J2VwaWtfcHl0aG9uJywgJy1waHQnLCAnMC43JywgJy1waCcsICc3LjAnLCAnLXRuJywgJzgnLCAnLW1hJywgJzIwMCcsICctaW1hZScsICc8aW5maWxlLm1hZT4nLCAnLW9tYWUnLCAnPG91dGZpbGUubWFlPic=

> <r_rge_R1_r_epik_Ionization_Penalty>
0.1115

> <r_rge_R1_r_epik_Ionization_Penalty_Charging>
0.1115

> <r_rge_R1_r_epik_Ionization_Penalty_Neutral>
0

> <r_rge_R1_r_epik_State_Penalty>
0.1013

> <r_rge_R1_r_epik_Charging_Adjusted_Penalty>
0.212781684948892

> <i_rge_R1_i_epik_Tot_Q>
1

> <i_rge_R1_i_epik_Tot_abs_Q>
1

> <s_rge_R1_s_lp_Force_Field>
OPLS_2005

> <r_rge_R1_r_lp_Energy>
9.67123800781254

> <b_rge_R1_b_lp_Chiralities_Consistent>
1

> <s_rge_R1_s_lp_Variant>
Untitled_Molecule_000032-1

> <s_m_subgroup_title>
ReplaceWaterV2_9-out1

> <s_m_subgroupid>
ReplaceWaterV2_9-out1

> <b_m_subgroup_collapsed>
0

$$$$
Core,ligand-designer_replace-H2O
                    3D
 Schrodinger Suite 2020-1.
 17 17  0  0  1  0            999 V2000
   -1.9395    1.4140    0.0779 C   0  0  0  0  0  0
   -2.6082    2.5952    0.1142 N   0  0  0  0  0  0
   -1.8767    3.7365    0.0633 C   0  0  0  0  0  0
   -0.4845    3.7407   -0.0227 C   0  0  0  0  0  0
    0.1846    2.5158   -0.0592 C   0  0  0  0  0  0
   -0.5475    1.3153   -0.0092 C   0  0  0  0  0  0
    0.0038    0.0491   -0.0403 O   0  0  0  0  0  0
    1.3872   -0.0901   -0.1255 C   0  0  0  0  0  0
   -2.4290    4.6643    0.0923 H   0  0  0  0  0  0
    0.0638    4.6706   -0.0608 H   0  0  0  0  0  0
    1.2621    2.5152   -0.1263 H   0  0  0  0  0  0
    1.7213    0.3968   -1.0435 H   0  0  0  0  0  0
    1.8274    0.3794    0.7560 H   0  0  0  0  0  0
   -2.5485    0.5229    0.1204 H   0  0  0  0  0  0
    1.7868   -1.4711   -0.1632 N   0  0  0  0  0  0
    2.2512   -1.7283   -1.0225 H   0  0  0  0  0  0
    2.3558   -1.7438    0.6256 H   0  0  0  0  0  0
  1  2  1  0  0  0
  1  6  2  0  0  0
  1 14  1  0  0  0
  2  3  2  0  0  0
  3  4  1  0  0  0
  3  9  1  0  0  0
  4  5  2  0  0  0
  4 10  1  0  0  0
  5  6  1  0  0  0
  5 11  1  0  0  0
  6  7  1  0  0  0
  7  8  1  0  0  0
  8 12  1  0  0  0
  8 13  1  0  0  0
  8 15  1  0  0  0
 15 16  1  0  0  0
 15 17  1  0  0  0
M  END
> <i_m_ct_stereo_status>
1

> <i_m_stars>
0

> <s_m_entry_id>
18505

> <s_m_entry_name>
Structure11785

> <s_pdb_PDB_TITLE>
P38 KINASE CRYSTAL STRUCTURE IN COMPLEX WITH SMALL MOLECULE INHIBITOR

> <s_pdb_PDB_ID>
1W7H

> <i_pdb_PDB_Model>
1

> <r_pdb_PDB_CRYST1_a>
45.771

> <r_pdb_PDB_CRYST1_b>
87.101

> <r_pdb_PDB_CRYST1_c>
126.337

> <r_pdb_PDB_CRYST1_alpha>
90

> <r_pdb_PDB_CRYST1_beta>
90

> <r_pdb_PDB_CRYST1_gamma>
90

> <s_pdb_PDB_CRYST1_Space_Group>
P 21 21 21

> <i_pdb_PDB_CRYST1_z>
4

> <s_pdb_PDB_CLASSIFICATION>
TRANSFERASE

> <s_pdb_PDB_DEPOSITION_DATE>
02-SEP-04

> <s_pdb_PDB_format_version>
3.0

> <r_pdb_PDB_RESOLUTION>
2.21

> <s_pdb_PDB_EXPDTA>
X-RAY DIFFRACTION

> <r_pdb_PDB_EXPDTA_TEMPERATURE>
100

> <r_pdb_PDB_EXPDTA_PH>
7

> <s_pdb_PDB_REMARK_350_Biomolecule_1_Transform_1_Chains>
A

> <s_pdb_PDB_REMARK_350_Biomolecule_1_Transform_1_Matrix_1>
1.000000 0.000000 0.000000   0.000000;0.000000 1.000000 0.000000   0.000000;0.000000 0.000000 1.000000   0.000000

> <s_m_Source_Path>
/scratch/alberto/systems/Trials

> <s_m_Source_File>
1w7h_prep.pdb

> <i_m_Source_File_Index>
1

> <s_m_source_file>
ReplaceWaterV2_9.maegz

> <i_m_source_file_index>
1

> <i_lp_mmshare_version>
49012

> <i_f3d_flags>
0

> <s_epik_input>
W05IMl1bQ0gyXU9jMVtjSF1uW2NIXVtjSF1bY0hdMQ==

> <s_epik_cmdline>
J2VwaWtfcHl0aG9uJywgJy1waCcsICc3LjAnLCAnLXRuJywgJzgnLCAnLW1hJywgJzIwMCcsICctaW1hZScsICc8aW5maWxlLm1hZT4nLCAnLW9tYWUnLCAnPG91dGZpbGUubWFlPic=

> <r_epik_Ionization_Penalty>
  0.5018

> <r_epik_Ionization_Penalty_Charging>
  0.0000

> <r_epik_Ionization_Penalty_Neutral>
  0.5018

> <r_epik_State_Penalty>
  0.5076

> <r_epik_Charging_Adjusted_Penalty>
0.50763860679686

> <i_epik_Tot_Q>
0

> <i_epik_Tot_abs_Q>
0

> <s_lp_Force_Field>
OPLS3e

> <r_lp_Energy>
22.902273

> <b_lp_Chiralities_Consistent>
1

> <s_lp_Variant>
Core,ligand-designer_replace-H2O-2

> <s_m_job_name>
ReplaceWaterV2_9

> <r_lp_tautomer_probability>
1

> <s_epik_Chemistry_Notes>
This compound contains an acetal/aminal-like group ( X-CH(R)-Y where X, Y are N, S, or O) that may be acid/base labile, releasing an aldehyde.

> <i_rge_num_r_groups>
1

> <r_rge_occupation_R1>
1

> <s_rge_R1>
ligand-designer_replace-H2O

> <s_rge_R1_s_m_title>
ligand-designer_replace-H2O

> <s_rge_R1_s_m_entry_id>
25669

> <s_rge_R1_s_m_entry_name>
ligand-designer_replace-H2O.smi-ligprep.1

> <s_rge_R1_s_m_smiles>
[*]N

> <s_rge_R1_s_m_Source_File>
ligand-designer_replace-H2O.maegz-dedup.maegz-names.maegz

> <i_rge_R1_i_m_Source_File_Index>
1

> <s_rge_R1_s_m_Source_Path>
/Users/konze/projects/pathfinder/r-groups/final-r-groups

> <s_rge_R1_s_canvas_Unique_SMILES_Stereo>
NCl

> <i_rge_R1_i_lp_mmshare_version>
42013

> <i_rge_R1_i_f3d_flags>
0

> <i_rge_R1_i_m_stars>
0

> <s_rge_R1_s_m_subgroup_title>
ligand-designer_replace-H2O

> <s_rge_R1_s_m_subgroupid>
ligand-designer_replace-H2O.smi-ligprep111

> <b_rge_R1_b_m_subgroup_collapsed>
1

> <s_rge_R1_s_epik_input>
Q2xbQ0hdMVtDSDJdW05IXVtDSDJdMQ==

> <s_rge_R1_s_epik_cmdline>
J2VwaWtfcHl0aG9uJywgJy1waHQnLCAnMC43JywgJy1waCcsICc3LjAnLCAnLXRuJywgJzgnLCAnLW1hJywgJzIwMCcsICctaW1hZScsICc8aW5maWxlLm1hZT4nLCAnLW9tYWUnLCAnPG91dGZpbGUubWFlPic=

> <r_rge_R1_r_epik_Ionization_Penalty>
0.1115

> <r_rge_R1_r_epik_Ionization_Penalty_Charging>
0.1115

> <r_rge_R1_r_epik_Ionization_Penalty_Neutral>
0

> <r_rge_R1_r_epik_State_Penalty>
0.1013

> <r_rge_R1_r_epik_Charging_Adjusted_Penalty>
0.212781684948892

> <i_rge_R1_i_epik_Tot_Q>
1

> <i_rge_R1_i_epik_Tot_abs_Q>
1

> <s_rge_R1_s_lp_Force_Field>
OPLS_2005

> <r_rge_R1_r_lp_Energy>
9.67123800781254

> <b_rge_R1_b_lp_Chiralities_Consistent>
1

> <s_rge_R1_s_lp_Variant>
Untitled_Molecule_000032-1

> <s_m_subgroup_title>
ReplaceWaterV2_9-out1

> <s_m_subgroupid>
ReplaceWaterV2_9-out1

> <b_m_subgroup_collapsed>
0

$$$$
Core,ligand-designer_replace-H2O_1
                    3D
 Schrodinger Suite 2020-1.
 21 21  0  0  1  0            999 V2000
   -1.9165    1.3879    0.0000 C   0  0  0  0  0  0
   -2.6572    2.5257    0.0000 N   0  0  0  0  0  0
   -1.9958    3.7102    0.0000 C   0  0  0  0  0  0
   -0.6037    3.8001   -0.0000 C   0  0  0  0  0  0
    0.1403    2.6186   -0.0000 C   0  0  0  0  0  0
   -0.5183    1.3754    0.0000 C   0  0  0  0  0  0
    0.1115    0.1469    0.0000 O   0  0  0  0  0  0
    1.5323    0.1129   -0.0000 C   0  0  0  0  0  0
   -2.6050    4.6023    0.0000 H   0  0  0  0  0  0
   -0.1122    4.7620   -0.0000 H   0  0  0  0  0  0
    1.2178    2.6851   -0.0000 H   0  0  0  0  0  0
    1.9771    0.5317   -0.9048 H   0  0  0  0  0  0
    1.9771    0.5317    0.9048 H   0  0  0  0  0  0
   -2.4726    0.4617    0.0000 H   0  0  0  0  0  0
    1.8889   -1.3783    0.0001 N   0  3  0  0  0  0
    3.4006   -1.6426   -0.0000 C   0  0  0  0  0  0
    1.4779   -1.8096    0.8160 H   0  0  0  0  0  0
    3.5213   -2.7262    0.0000 H   0  0  0  0  0  0
    3.8091   -1.1924    0.9057 H   0  0  0  0  0  0
    3.8091   -1.1924   -0.9057 H   0  0  0  0  0  0
    1.4779   -1.8096   -0.8161 H   0  0  0  0  0  0
  1  2  1  0  0  0
  1  6  2  0  0  0
  1 14  1  0  0  0
  2  3  2  0  0  0
  3  4  1  0  0  0
  3  9  1  0  0  0
  4  5  2  0  0  0
  4 10  1  0  0  0
  5  6  1  0  0  0
  5 11  1  0  0  0
  6  7  1  0  0  0
  7  8  1  0  0  0
  8 12  1  0  0  0
  8 13  1  0  0  0
  8 15  1  0  0  0
 15 16  1  0  0  0
 15 17  1  0  0  0
 15 21  1  0  0  0
 16 18  1  0  0  0
 16 19  1  0  0  0
 16 20  1  0  0  0
M  CHG  1  15   1
M  END
> <i_m_ct_stereo_status>
1

> <i_m_stars>
0

> <s_m_entry_id>
18506

> <s_m_entry_name>
Structure11785

> <s_pdb_PDB_TITLE>
P38 KINASE CRYSTAL STRUCTURE IN COMPLEX WITH SMALL MOLECULE INHIBITOR

> <s_pdb_PDB_ID>
1W7H

> <i_pdb_PDB_Model>
1

> <r_pdb_PDB_CRYST1_a>
45.771

> <r_pdb_PDB_CRYST1_b>
87.101

> <r_pdb_PDB_CRYST1_c>
126.337

> <r_pdb_PDB_CRYST1_alpha>
90

> <r_pdb_PDB_CRYST1_beta>
90

> <r_pdb_PDB_CRYST1_gamma>
90

> <s_pdb_PDB_CRYST1_Space_Group>
P 21 21 21

> <i_pdb_PDB_CRYST1_z>
4

> <s_pdb_PDB_CLASSIFICATION>
TRANSFERASE

> <s_pdb_PDB_DEPOSITION_DATE>
02-SEP-04

> <s_pdb_PDB_format_version>
3.0

> <r_pdb_PDB_RESOLUTION>
2.21

> <s_pdb_PDB_EXPDTA>
X-RAY DIFFRACTION

> <r_pdb_PDB_EXPDTA_TEMPERATURE>
100

> <r_pdb_PDB_EXPDTA_PH>
7

> <s_pdb_PDB_REMARK_350_Biomolecule_1_Transform_1_Chains>
A

> <s_pdb_PDB_REMARK_350_Biomolecule_1_Transform_1_Matrix_1>
1.000000 0.000000 0.000000   0.000000;0.000000 1.000000 0.000000   0.000000;0.000000 0.000000 1.000000   0.000000

> <s_m_Source_Path>
/scratch/alberto/systems/Trials

> <s_m_Source_File>
1w7h_prep.pdb

> <i_m_Source_File_Index>
1

> <s_m_source_file>
ReplaceWaterV2_9.maegz

> <i_m_source_file_index>
2

> <i_lp_mmshare_version>
49012

> <i_f3d_flags>
0

> <s_epik_input>
W2NIXTFbY0hdW2NIXW5bY0hdYzFPW0NIMl1bTkhdW0NIM10=

> <s_epik_cmdline>
J2VwaWtfcHl0aG9uJywgJy1waCcsICc3LjAnLCAnLXRuJywgJzgnLCAnLW1hJywgJzIwMCcsICctaW1hZScsICc8aW5maWxlLm1hZT4nLCAnLW9tYWUnLCAnPG91dGZpbGUubWFlPic=

> <r_epik_Ionization_Penalty>
  0.0927

> <r_epik_Ionization_Penalty_Charging>
  0.0916

> <r_epik_Ionization_Penalty_Neutral>
  0.0011

> <r_epik_State_Penalty>
  0.0749

> <r_epik_Charging_Adjusted_Penalty>
0.166474516058696

> <i_epik_Tot_Q>
1

> <i_epik_Tot_abs_Q>
1

> <s_lp_Force_Field>
OPLS3e

> <r_lp_Energy>
19.830973

> <b_lp_Chiralities_Consistent>
1

> <s_lp_Variant>
Core,ligand-designer_replace-H2O_1-1

> <s_m_job_name>
ReplaceWaterV2_9

> <r_lp_tautomer_probability>
1

> <s_epik_Chemistry_Notes>
This compound contains an acetal/aminal-like group ( X-CH(R)-Y where X, Y are N, S, or O) that may be acid/base labile, releasing an aldehyde.

> <i_rge_num_r_groups>
1

> <r_rge_occupation_R1>
1

> <s_rge_R1>
ligand-designer_replace-H2O_1

> <s_rge_R1_s_m_title>
ligand-designer_replace-H2O_1

> <s_rge_R1_s_m_entry_id>
25670

> <s_rge_R1_s_m_entry_name>
ligand-designer_replace-H2O.smi-ligprep.2

> <s_rge_R1_s_m_smiles>
[*]NC

> <s_rge_R1_s_m_Source_File>
ligand-designer_replace-H2O.maegz-dedup.maegz-names.maegz

> <i_rge_R1_i_m_Source_File_Index>
2

> <s_rge_R1_s_m_Source_Path>
/Users/konze/projects/pathfinder/r-groups/final-r-groups

> <s_rge_R1_s_canvas_Unique_SMILES_Stereo>
CNCl

> <i_rge_R1_i_lp_mmshare_version>
42013

> <i_rge_R1_i_f3d_flags>
0

> <i_rge_R1_i_m_stars>
0

> <s_rge_R1_s_m_subgroup_title>
ligand-designer_replace-H2O

> <s_rge_R1_s_m_subgroupid>
ligand-designer_replace-H2O.smi-ligprep111

> <b_rge_R1_b_m_subgroup_collapsed>
1

> <s_rge_R1_s_epik_input>
Q2xbQ0hdMVtDSDJdW05IXVtDSDJdMQ==

> <s_rge_R1_s_epik_cmdline>
J2VwaWtfcHl0aG9uJywgJy1waHQnLCAnMC43JywgJy1waCcsICc3LjAnLCAnLXRuJywgJzgnLCAnLW1hJywgJzIwMCcsICctaW1hZScsICc8aW5maWxlLm1hZT4nLCAnLW9tYWUnLCAnPG91dGZpbGUubWFlPic=

> <r_rge_R1_r_epik_Ionization_Penalty>
0.1115

> <r_rge_R1_r_epik_Ionization_Penalty_Charging>
0.1115

> <r_rge_R1_r_epik_Ionization_Penalty_Neutral>
0

> <r_rge_R1_r_epik_State_Penalty>
0.1013

> <r_rge_R1_r_epik_Charging_Adjusted_Penalty>
0.212781684948892

> <i_rge_R1_i_epik_Tot_Q>
1

> <i_rge_R1_i_epik_Tot_abs_Q>
1

> <s_rge_R1_s_lp_Force_Field>
OPLS_2005

> <r_rge_R1_r_lp_Energy>
9.67123800781254

> <b_rge_R1_b_lp_Chiralities_Consistent>
1

> <s_rge_R1_s_lp_Variant>
Untitled_Molecule_000032-1

> <s_m_subgroup_title>
ReplaceWaterV2_9-out1

> <s_m_subgroupid>
ReplaceWaterV2_9-out1

> <b_m_subgroup_collapsed>
0

$$$$
Core,ligand-designer_replace-H2O_1
                    3D
 Schrodinger Suite 2020-1.
 20 20  0  0  1  0            999 V2000
   -1.9249    1.3971   -0.0916 C   0  0  0  0  0  0
   -2.6298    2.5572   -0.1193 N   0  0  0  0  0  0
   -1.9341    3.7201   -0.0553 C   0  0  0  0  0  0
   -0.5429    3.7668    0.0358 C   0  0  0  0  0  0
    0.1636    2.5627    0.0628 C   0  0  0  0  0  0
   -0.5307    1.3407   -0.0007 C   0  0  0  0  0  0
    0.0590    0.0919    0.0208 O   0  0  0  0  0  0
    1.4456   -0.0056    0.1093 C   0  0  0  0  0  0
   -2.5148    4.6305   -0.0783 H   0  0  0  0  0  0
   -0.0236    4.7124    0.0850 H   0  0  0  0  0  0
    1.2405    2.5945    0.1329 H   0  0  0  0  0  0
    1.8917    0.5053   -0.7468 H   0  0  0  0  0  0
    1.7692    0.4863    1.0287 H   0  0  0  0  0  0
   -2.5058    0.4881   -0.1446 H   0  0  0  0  0  0
    1.8927   -1.3772    0.1483 N   0  0  1  0  0  0
    3.3125   -1.5500   -0.1062 C   0  0  0  0  0  0
    1.7000   -1.7647    1.0613 H   0  0  0  0  0  0
    3.5752   -2.6064   -0.0472 H   0  0  0  0  0  0
    3.9085   -1.0100    0.6304 H   0  0  0  0  0  0
    3.5770   -1.1903   -1.1014 H   0  0  0  0  0  0
  1  2  1  0  0  0
  1  6  2  0  0  0
  1 14  1  0  0  0
  2  3  2  0  0  0
  3  4  1  0  0  0
  3  9  1  0  0  0
  4  5  2  0  0  0
  4 10  1  0  0  0
  5  6  1  0  0  0
  5 11  1  0  0  0
  6  7  1  0  0  0
  7  8  1  0  0  0
  8 12  1  0  0  0
  8 13  1  0  0  0
  8 15  1  0  0  0
 15 16  1  0  0  0
 15 17  1  0  0  0
 16 18  1  0  0  0
 16 19  1  0  0  0
 16 20  1  0  0  0
M  END
> <i_m_ct_stereo_status>
1

> <i_m_stars>
0

> <s_m_entry_id>
18507

> <s_m_entry_name>
Structure11785

> <s_pdb_PDB_TITLE>
P38 KINASE CRYSTAL STRUCTURE IN COMPLEX WITH SMALL MOLECULE INHIBITOR

> <s_pdb_PDB_ID>
1W7H

> <i_pdb_PDB_Model>
1

> <r_pdb_PDB_CRYST1_a>
45.771

> <r_pdb_PDB_CRYST1_b>
87.101

> <r_pdb_PDB_CRYST1_c>
126.337

> <r_pdb_PDB_CRYST1_alpha>
90

> <r_pdb_PDB_CRYST1_beta>
90

> <r_pdb_PDB_CRYST1_gamma>
90

> <s_pdb_PDB_CRYST1_Space_Group>
P 21 21 21

> <i_pdb_PDB_CRYST1_z>
4

> <s_pdb_PDB_CLASSIFICATION>
TRANSFERASE

> <s_pdb_PDB_DEPOSITION_DATE>
02-SEP-04

> <s_pdb_PDB_format_version>
3.0

> <r_pdb_PDB_RESOLUTION>
2.21

> <s_pdb_PDB_EXPDTA>
X-RAY DIFFRACTION

> <r_pdb_PDB_EXPDTA_TEMPERATURE>
100

> <r_pdb_PDB_EXPDTA_PH>
7

> <s_pdb_PDB_REMARK_350_Biomolecule_1_Transform_1_Chains>
A

> <s_pdb_PDB_REMARK_350_Biomolecule_1_Transform_1_Matrix_1>
1.000000 0.000000 0.000000   0.000000;0.000000 1.000000 0.000000   0.000000;0.000000 0.000000 1.000000   0.000000

> <s_m_Source_Path>
/scratch/alberto/systems/Trials

> <s_m_Source_File>
1w7h_prep.pdb

> <i_m_Source_File_Index>
1

> <s_m_source_file>
ReplaceWaterV2_9.maegz

> <i_m_source_file_index>
2

> <i_lp_mmshare_version>
49012

> <i_f3d_flags>
0

> <s_epik_input>
W2NIXTFbY0hdW2NIXW5bY0hdYzFPW0NIMl1bTkhdW0NIM10=

> <s_epik_cmdline>
J2VwaWtfcHl0aG9uJywgJy1waCcsICc3LjAnLCAnLXRuJywgJzgnLCAnLW1hJywgJzIwMCcsICctaW1hZScsICc8aW5maWxlLm1hZT4nLCAnLW9tYWUnLCAnPG91dGZpbGUubWFlPic=

> <r_epik_Ionization_Penalty>
  1.1562

> <r_epik_Ionization_Penalty_Charging>
  0.0000

> <r_epik_Ionization_Penalty_Neutral>
  1.1562

> <r_epik_State_Penalty>
  1.2718

> <r_epik_Charging_Adjusted_Penalty>
1.27180233091386

> <i_epik_Tot_Q>
0

> <i_epik_Tot_abs_Q>
0

> <s_lp_Force_Field>
OPLS3e

> <r_lp_Energy>
22.507948

> <b_lp_Chiralities_Consistent>
1

> <s_lp_Variant>
Core,ligand-designer_replace-H2O_1-2

> <s_m_job_name>
ReplaceWaterV2_9

> <r_lp_tautomer_probability>
1

> <s_epik_Chemistry_Notes>
This compound contains an acetal/aminal-like group ( X-CH(R)-Y where X, Y are N, S, or O) that may be acid/base labile, releasing an aldehyde.

> <i_rge_num_r_groups>
1

> <r_rge_occupation_R1>
1

> <s_rge_R1>
ligand-designer_replace-H2O_1

> <s_rge_R1_s_m_title>
ligand-designer_replace-H2O_1

> <s_rge_R1_s_m_entry_id>
25670

> <s_rge_R1_s_m_entry_name>
ligand-designer_replace-H2O.smi-ligprep.2

> <s_rge_R1_s_m_smiles>
[*]NC

> <s_rge_R1_s_m_Source_File>
ligand-designer_replace-H2O.maegz-dedup.maegz-names.maegz

> <i_rge_R1_i_m_Source_File_Index>
2

> <s_rge_R1_s_m_Source_Path>
/Users/konze/projects/pathfinder/r-groups/final-r-groups

> <s_rge_R1_s_canvas_Unique_SMILES_Stereo>
CNCl

> <i_rge_R1_i_lp_mmshare_version>
42013

> <i_rge_R1_i_f3d_flags>
0

> <i_rge_R1_i_m_stars>
0

> <s_rge_R1_s_m_subgroup_title>
ligand-designer_replace-H2O

> <s_rge_R1_s_m_subgroupid>
ligand-designer_replace-H2O.smi-ligprep111

> <b_rge_R1_b_m_subgroup_collapsed>
1

> <s_rge_R1_s_epik_input>
Q2xbQ0hdMVtDSDJdW05IXVtDSDJdMQ==

> <s_rge_R1_s_epik_cmdline>
J2VwaWtfcHl0aG9uJywgJy1waHQnLCAnMC43JywgJy1waCcsICc3LjAnLCAnLXRuJywgJzgnLCAnLW1hJywgJzIwMCcsICctaW1hZScsICc8aW5maWxlLm1hZT4nLCAnLW9tYWUnLCAnPG91dGZpbGUubWFlPic=

> <r_rge_R1_r_epik_Ionization_Penalty>
0.1115

> <r_rge_R1_r_epik_Ionization_Penalty_Charging>
0.1115

> <r_rge_R1_r_epik_Ionization_Penalty_Neutral>
0

> <r_rge_R1_r_epik_State_Penalty>
0.1013

> <r_rge_R1_r_epik_Charging_Adjusted_Penalty>
0.212781684948892

> <i_rge_R1_i_epik_Tot_Q>
1

> <i_rge_R1_i_epik_Tot_abs_Q>
1

> <s_rge_R1_s_lp_Force_Field>
OPLS_2005

> <r_rge_R1_r_lp_Energy>
9.67123800781254

> <b_rge_R1_b_lp_Chiralities_Consistent>
1

> <s_rge_R1_s_lp_Variant>
Untitled_Molecule_000032-1

> <s_m_subgroup_title>
ReplaceWaterV2_9-out1

> <s_m_subgroupid>
ReplaceWaterV2_9-out1

> <b_m_subgroup_collapsed>
0

$$$$
Core,ligand-designer_replace-H2O_2
                    3D
 Schrodinger Suite 2020-1.
 16 16  0  0  1  0            999 V2000
   -1.9315    1.4002    0.0000 C   0  0  0  0  0  0
   -2.6038    2.5798    0.0000 N   0  0  0  0  0  0
   -1.8731    3.7228    0.0000 C   0  0  0  0  0  0
   -0.4781    3.7300   -0.0000 C   0  0  0  0  0  0
    0.1945    2.5065   -0.0000 C   0  0  0  0  0  0
   -0.5364    1.3044    0.0000 C   0  0  0  0  0  0
    0.0183    0.0391    0.0000 O   0  0  0  0  0  0
    1.4054   -0.1017   -0.0000 C   0  0  0  0  0  0
   -2.4284    4.6491    0.0000 H   0  0  0  0  0  0
    0.0696    4.6610   -0.0000 H   0  0  0  0  0  0
    1.2739    2.5083   -0.0000 H   0  0  0  0  0  0
    1.8392    0.3624   -0.8876 H   0  0  0  0  0  0
    1.8392    0.3624    0.8876 H   0  0  0  0  0  0
   -2.5401    0.5079    0.0000 H   0  0  0  0  0  0
    1.8017   -1.4110    0.0000 O   0  0  0  0  0  0
    2.7615   -1.4308    0.0000 H   0  0  0  0  0  0
  1  2  1  0  0  0
  1  6  2  0  0  0
  1 14  1  0  0  0
  2  3  2  0  0  0
  3  4  1  0  0  0
  3  9  1  0  0  0
  4  5  2  0  0  0
  4 10  1  0  0  0
  5  6  1  0  0  0
  5 11  1  0  0  0
  6  7  1  0  0  0
  7  8  1  0  0  0
  8 12  1  0  0  0
  8 13  1  0  0  0
  8 15  1  0  0  0
 15 16  1  0  0  0
M  END
> <i_m_ct_stereo_status>
1

> <i_m_stars>
0

> <s_m_entry_id>
18508

> <s_m_entry_name>
Structure11785

> <s_pdb_PDB_TITLE>
P38 KINASE CRYSTAL STRUCTURE IN COMPLEX WITH SMALL MOLECULE INHIBITOR

> <s_pdb_PDB_ID>
1W7H

> <i_pdb_PDB_Model>
1

> <r_pdb_PDB_CRYST1_a>
45.771

> <r_pdb_PDB_CRYST1_b>
87.101

> <r_pdb_PDB_CRYST1_c>
126.337

> <r_pdb_PDB_CRYST1_alpha>
90

> <r_pdb_PDB_CRYST1_beta>
90

> <r_pdb_PDB_CRYST1_gamma>
90

> <s_pdb_PDB_CRYST1_Space_Group>
P 21 21 21

> <i_pdb_PDB_CRYST1_z>
4

> <s_pdb_PDB_CLASSIFICATION>
TRANSFERASE

> <s_pdb_PDB_DEPOSITION_DATE>
02-SEP-04

> <s_pdb_PDB_format_version>
3.0

> <r_pdb_PDB_RESOLUTION>
2.21

> <s_pdb_PDB_EXPDTA>
X-RAY DIFFRACTION

> <r_pdb_PDB_EXPDTA_TEMPERATURE>
100

> <r_pdb_PDB_EXPDTA_PH>
7

> <s_pdb_PDB_REMARK_350_Biomolecule_1_Transform_1_Chains>
A

> <s_pdb_PDB_REMARK_350_Biomolecule_1_Transform_1_Matrix_1>
1.000000 0.000000 0.000000   0.000000;0.000000 1.000000 0.000000   0.000000;0.000000 0.000000 1.000000   0.000000

> <s_m_Source_Path>
/scratch/alberto/systems/Trials

> <s_m_Source_File>
1w7h_prep.pdb

> <i_m_Source_File_Index>
1

> <s_m_source_file>
ReplaceWaterV2_9.maegz

> <i_m_source_file_index>
3

> <i_lp_mmshare_version>
49012

> <i_f3d_flags>
0

> <s_epik_input>
W09IXVtDSDJdT2MxW2NIXW5bY0hdW2NIXVtjSF0x

> <s_epik_cmdline>
J2VwaWtfcHl0aG9uJywgJy1waCcsICc3LjAnLCAnLXRuJywgJzgnLCAnLW1hJywgJzIwMCcsICctaW1hZScsICc8aW5maWxlLm1hZT4nLCAnLW9tYWUnLCAnPG91dGZpbGUubWFlPic=

> <r_epik_Ionization_Penalty>
  0.0032

> <r_epik_Ionization_Penalty_Charging>
  0.0000

> <r_epik_Ionization_Penalty_Neutral>
  0.0032

> <r_epik_State_Penalty>
  0.0023

> <r_epik_Charging_Adjusted_Penalty>
0.00227692238563039

> <i_epik_Tot_Q>
0

> <i_epik_Tot_abs_Q>
0

> <s_lp_Force_Field>
OPLS3e

> <r_lp_Energy>
21.601226

> <b_lp_Chiralities_Consistent>
1

> <s_lp_Variant>
Core,ligand-designer_replace-H2O_2-1

> <s_m_job_name>
ReplaceWaterV2_9

> <r_lp_tautomer_probability>
1

> <s_epik_Chemistry_Notes>
This compound contains an acetal/aminal-like group ( X-CH(R)-Y where X, Y are N, S, or O) that may be acid/base labile, releasing an aldehyde.

> <i_rge_num_r_groups>
1

> <r_rge_occupation_R1>
1

> <s_rge_R1>
ligand-designer_replace-H2O_2

> <s_rge_R1_s_m_title>
ligand-designer_replace-H2O_2

> <s_rge_R1_s_m_entry_id>
25671

> <s_rge_R1_s_m_entry_name>
ligand-designer_replace-H2O.smi-ligprep.3

> <s_rge_R1_s_m_smiles>
[*]O

> <s_rge_R1_s_m_Source_File>
ligand-designer_replace-H2O.maegz-dedup.maegz-names.maegz

> <i_rge_R1_i_m_Source_File_Index>
3

> <s_rge_R1_s_m_Source_Path>
/Users/konze/projects/pathfinder/r-groups/final-r-groups

> <s_rge_R1_s_canvas_Unique_SMILES_Stereo>
OCl

> <i_rge_R1_i_lp_mmshare_version>
42013

> <i_rge_R1_i_f3d_flags>
0

> <i_rge_R1_i_m_stars>
0

> <s_rge_R1_s_m_subgroup_title>
ligand-designer_replace-H2O

> <s_rge_R1_s_m_subgroupid>
ligand-designer_replace-H2O.smi-ligprep111

> <b_rge_R1_b_m_subgroup_collapsed>
1

> <s_rge_R1_s_epik_input>
Q2xbQ0hdMVtDSDJdW05IXVtDSDJdMQ==

> <s_rge_R1_s_epik_cmdline>
J2VwaWtfcHl0aG9uJywgJy1waHQnLCAnMC43JywgJy1waCcsICc3LjAnLCAnLXRuJywgJzgnLCAnLW1hJywgJzIwMCcsICctaW1hZScsICc8aW5maWxlLm1hZT4nLCAnLW9tYWUnLCAnPG91dGZpbGUubWFlPic=

> <r_rge_R1_r_epik_Ionization_Penalty>
0.1115

> <r_rge_R1_r_epik_Ionization_Penalty_Charging>
0.1115

> <r_rge_R1_r_epik_Ionization_Penalty_Neutral>
0

> <r_rge_R1_r_epik_State_Penalty>
0.1013

> <r_rge_R1_r_epik_Charging_Adjusted_Penalty>
0.212781684948892

> <i_rge_R1_i_epik_Tot_Q>
1

> <i_rge_R1_i_epik_Tot_abs_Q>
1

> <s_rge_R1_s_lp_Force_Field>
OPLS_2005

> <r_rge_R1_r_lp_Energy>
9.67123800781254

> <b_rge_R1_b_lp_Chiralities_Consistent>
1

> <s_rge_R1_s_lp_Variant>
Untitled_Molecule_000032-1

> <s_m_subgroup_title>
ReplaceWaterV2_9-out1

> <s_m_subgroupid>
ReplaceWaterV2_9-out1

> <b_m_subgroup_collapsed>
0

$$$$
Core,ligand-designer_replace-H2O_3
                    3D
 Schrodinger Suite 2020-1.
 19 19  0  0  1  0            999 V2000
   -1.9106    1.3876    0.0000 C   0  0  0  0  0  0
   -2.6185    2.5462    0.0000 N   0  0  0  0  0  0
   -1.9228    3.7109    0.0000 C   0  0  0  0  0  0
   -0.5288    3.7606   -0.0000 C   0  0  0  0  0  0
    0.1808    2.5581   -0.0000 C   0  0  0  0  0  0
   -0.5133    1.3345    0.0000 C   0  0  0  0  0  0
    0.0794    0.0869    0.0000 O   0  0  0  0  0  0
    1.5018   -0.0042   -0.0000 C   0  0  0  0  0  0
   -2.5058    4.6202    0.0000 H   0  0  0  0  0  0
   -0.0097    4.7077   -0.0000 H   0  0  0  0  0  0
    1.2598    2.5938   -0.0000 H   0  0  0  0  0  0
    1.9059    0.4881   -0.8869 H   0  0  0  0  0  0
    1.9059    0.4881    0.8869 H   0  0  0  0  0  0
   -2.4922    0.4774    0.0000 H   0  0  0  0  0  0
    1.8963   -1.4871    0.0000 C   0  0  0  0  0  0
    3.3013   -1.6315   -0.0000 O   0  0  0  0  0  0
    3.5125   -2.5682    0.0000 H   0  0  0  0  0  0
    1.4751   -1.9927    0.8697 H   0  0  0  0  0  0
    1.4751   -1.9927   -0.8697 H   0  0  0  0  0  0
  1  2  1  0  0  0
  1  6  2  0  0  0
  1 14  1  0  0  0
  2  3  2  0  0  0
  3  4  1  0  0  0
  3  9  1  0  0  0
  4  5  2  0  0  0
  4 10  1  0  0  0
  5  6  1  0  0  0
  5 11  1  0  0  0
  6  7  1  0  0  0
  7  8  1  0  0  0
  8 12  1  0  0  0
  8 13  1  0  0  0
  8 15  1  0  0  0
 15 16  1  0  0  0
 15 18  1  0  0  0
 15 19  1  0  0  0
 16 17  1  0  0  0
M  END
> <i_m_ct_stereo_status>
1

> <i_m_stars>
0

> <s_m_entry_id>
18509

> <s_m_entry_name>
Structure11785

> <s_pdb_PDB_TITLE>
P38 KINASE CRYSTAL STRUCTURE IN COMPLEX WITH SMALL MOLECULE INHIBITOR

> <s_pdb_PDB_ID>
1W7H

> <i_pdb_PDB_Model>
1

> <r_pdb_PDB_CRYST1_a>
45.771

> <r_pdb_PDB_CRYST1_b>
87.101

> <r_pdb_PDB_CRYST1_c>
126.337

> <r_pdb_PDB_CRYST1_alpha>
90

> <r_pdb_PDB_CRYST1_beta>
90

> <r_pdb_PDB_CRYST1_gamma>
90

> <s_pdb_PDB_CRYST1_Space_Group>
P 21 21 21

> <i_pdb_PDB_CRYST1_z>
4

> <s_pdb_PDB_CLASSIFICATION>
TRANSFERASE

> <s_pdb_PDB_DEPOSITION_DATE>
02-SEP-04

> <s_pdb_PDB_format_version>
3.0

> <r_pdb_PDB_RESOLUTION>
2.21

> <s_pdb_PDB_EXPDTA>
X-RAY DIFFRACTION

> <r_pdb_PDB_EXPDTA_TEMPERATURE>
100

> <r_pdb_PDB_EXPDTA_PH>
7

> <s_pdb_PDB_REMARK_350_Biomolecule_1_Transform_1_Chains>
A

> <s_pdb_PDB_REMARK_350_Biomolecule_1_Transform_1_Matrix_1>
1.000000 0.000000 0.000000   0.000000;0.000000 1.000000 0.000000   0.000000;0.000000 0.000000 1.000000   0.000000

> <s_m_Source_Path>
/scratch/alberto/systems/Trials

> <s_m_Source_File>
1w7h_prep.pdb

> <i_m_Source_File_Index>
1

> <s_m_source_file>
ReplaceWaterV2_9.maegz

> <i_m_source_file_index>
4

> <i_lp_mmshare_version>
49012

> <i_f3d_flags>
0

> <s_epik_input>
W2NIXTFbY0hdW2NIXW5bY0hdYzFPW0NIMl1bQ0gyXVtPSF0=

> <s_epik_cmdline>
J2VwaWtfcHl0aG9uJywgJy1waCcsICc3LjAnLCAnLXRuJywgJzgnLCAnLW1hJywgJzIwMCcsICctaW1hZScsICc8aW5maWxlLm1hZT4nLCAnLW9tYWUnLCAnPG91dGZpbGUubWFlPic=

> <r_epik_Ionization_Penalty>
  0.0015

> <r_epik_Ionization_Penalty_Charging>
  0.0000

> <r_epik_Ionization_Penalty_Neutral>
  0.0015

> <r_epik_State_Penalty>
  0.0010

> <r_epik_Charging_Adjusted_Penalty>
0.00102655962099558

> <i_epik_Tot_Q>
0

> <i_epik_Tot_abs_Q>
0

> <s_lp_Force_Field>
OPLS3e

> <r_lp_Energy>
16.421754

> <b_lp_Chiralities_Consistent>
1

> <s_lp_Variant>
Core,ligand-designer_replace-H2O_3-1

> <s_m_job_name>
ReplaceWaterV2_9

> <r_lp_tautomer_probability>
1

> <i_rge_num_r_groups>
1

> <r_rge_occupation_R1>
1

> <s_rge_R1>
ligand-designer_replace-H2O_3

> <s_rge_R1_s_m_title>
ligand-designer_replace-H2O_3

> <s_rge_R1_s_m_entry_id>
25672

> <s_rge_R1_s_m_entry_name>
ligand-designer_replace-H2O.smi-ligprep.4

> <s_rge_R1_s_m_smiles>
[*]CO

> <s_rge_R1_s_m_Source_File>
ligand-designer_replace-H2O.maegz-dedup.maegz-names.maegz

> <i_rge_R1_i_m_Source_File_Index>
4

> <s_rge_R1_s_m_Source_Path>
/Users/konze/projects/pathfinder/r-groups/final-r-groups

> <s_rge_R1_s_canvas_Unique_SMILES_Stereo>
ClCO

> <i_rge_R1_i_lp_mmshare_version>
42013

> <i_rge_R1_i_f3d_flags>
0

> <i_rge_R1_i_m_stars>
0

> <s_rge_R1_s_m_subgroup_title>
ligand-designer_replace-H2O

> <s_rge_R1_s_m_subgroupid>
ligand-designer_replace-H2O.smi-ligprep111

> <b_rge_R1_b_m_subgroup_collapsed>
1

> <s_rge_R1_s_epik_input>
Q2xbQ0hdMVtDSDJdW05IXVtDSDJdMQ==

> <s_rge_R1_s_epik_cmdline>
J2VwaWtfcHl0aG9uJywgJy1waHQnLCAnMC43JywgJy1waCcsICc3LjAnLCAnLXRuJywgJzgnLCAnLW1hJywgJzIwMCcsICctaW1hZScsICc8aW5maWxlLm1hZT4nLCAnLW9tYWUnLCAnPG91dGZpbGUubWFlPic=

> <r_rge_R1_r_epik_Ionization_Penalty>
0.1115

> <r_rge_R1_r_epik_Ionization_Penalty_Charging>
0.1115

> <r_rge_R1_r_epik_Ionization_Penalty_Neutral>
0

> <r_rge_R1_r_epik_State_Penalty>
0.1013

> <r_rge_R1_r_epik_Charging_Adjusted_Penalty>
0.212781684948892

> <i_rge_R1_i_epik_Tot_Q>
1

> <i_rge_R1_i_epik_Tot_abs_Q>
1

> <s_rge_R1_s_lp_Force_Field>
OPLS_2005

> <r_rge_R1_r_lp_Energy>
9.67123800781254

> <b_rge_R1_b_lp_Chiralities_Consistent>
1

> <s_rge_R1_s_lp_Variant>
Untitled_Molecule_000032-1

> <s_m_subgroup_title>
ReplaceWaterV2_9-out1

> <s_m_subgroupid>
ReplaceWaterV2_9-out1

> <b_m_subgroup_collapsed>
0

$$$$
Core,ligand-designer_replace-H2O_4
                    3D
 Schrodinger Suite 2020-1.
 22 22  0  0  1  0            999 V2000
   -2.4122    2.6508   -0.0000 C   0  0  0  0  0  0
   -3.7372    2.9471   -0.0000 N   0  0  0  0  0  0
   -4.6150    1.9128   -0.0000 C   0  0  0  0  0  0
   -4.2124    0.5773    0.0000 C   0  0  0  0  0  0
   -2.8453    0.2936    0.0000 C   0  0  0  0  0  0
   -1.9112    1.3455   -0.0000 C   0  0  0  0  0  0
   -0.5391    1.1878    0.0000 O   0  0  0  0  0  0
    0.0057   -0.1288   -0.0000 C   0  0  0  0  0  0
   -5.6636    2.1714   -0.0000 H   0  0  0  0  0  0
   -4.9417   -0.2194    0.0000 H   0  0  0  0  0  0
   -2.5312   -0.7392    0.0000 H   0  0  0  0  0  0
   -0.3276   -0.6773    0.8830 H   0  0  0  0  0  0
   -0.3276   -0.6773   -0.8830 H   0  0  0  0  0  0
   -1.7380    3.4947   -0.0000 H   0  0  0  0  0  0
    1.5359   -0.0347    0.0000 C   0  0  0  0  0  0
    2.0818   -1.3466   -0.0000 O   0  0  0  0  0  0
    3.5010   -1.3673    0.0000 C   0  0  0  0  0  0
    1.8718    0.5155   -0.8811 H   0  0  0  0  0  0
    1.8718    0.5155    0.8811 H   0  0  0  0  0  0
    3.8501   -2.3999    0.0000 H   0  0  0  0  0  0
    3.9065   -0.8778    0.8869 H   0  0  0  0  0  0
    3.9065   -0.8778   -0.8869 H   0  0  0  0  0  0
  1  2  1  0  0  0
  1  6  2  0  0  0
  1 14  1  0  0  0
  2  3  2  0  0  0
  3  4  1  0  0  0
  3  9  1  0  0  0
  4  5  2  0  0  0
  4 10  1  0  0  0
  5  6  1  0  0  0
  5 11  1  0  0  0
  6  7  1  0  0  0
  7  8  1  0  0  0
  8 12  1  0  0  0
  8 13  1  0  0  0
  8 15  1  0  0  0
 15 16  1  0  0  0
 15 18  1  0  0  0
 15 19  1  0  0  0
 16 17  1  0  0  0
 17 20  1  0  0  0
 17 21  1  0  0  0
 17 22  1  0  0  0
M  END
> <i_m_ct_stereo_status>
1

> <i_m_stars>
0

> <s_m_entry_id>
18510

> <s_m_entry_name>
Structure11785

> <s_pdb_PDB_TITLE>
P38 KINASE CRYSTAL STRUCTURE IN COMPLEX WITH SMALL MOLECULE INHIBITOR

> <s_pdb_PDB_ID>
1W7H

> <i_pdb_PDB_Model>
1

> <r_pdb_PDB_CRYST1_a>
45.771

> <r_pdb_PDB_CRYST1_b>
87.101

> <r_pdb_PDB_CRYST1_c>
126.337

> <r_pdb_PDB_CRYST1_alpha>
90

> <r_pdb_PDB_CRYST1_beta>
90

> <r_pdb_PDB_CRYST1_gamma>
90

> <s_pdb_PDB_CRYST1_Space_Group>
P 21 21 21

> <i_pdb_PDB_CRYST1_z>
4

> <s_pdb_PDB_CLASSIFICATION>
TRANSFERASE

> <s_pdb_PDB_DEPOSITION_DATE>
02-SEP-04

> <s_pdb_PDB_format_version>
3.0

> <r_pdb_PDB_RESOLUTION>
2.21

> <s_pdb_PDB_EXPDTA>
X-RAY DIFFRACTION

> <r_pdb_PDB_EXPDTA_TEMPERATURE>
100

> <r_pdb_PDB_EXPDTA_PH>
7

> <s_pdb_PDB_REMARK_350_Biomolecule_1_Transform_1_Chains>
A

> <s_pdb_PDB_REMARK_350_Biomolecule_1_Transform_1_Matrix_1>
1.000000 0.000000 0.000000   0.000000;0.000000 1.000000 0.000000   0.000000;0.000000 0.000000 1.000000   0.000000

> <s_m_Source_Path>
/scratch/alberto/systems/Trials

> <s_m_Source_File>
1w7h_prep.pdb

> <i_m_Source_File_Index>
1

> <s_m_source_file>
ReplaceWaterV2_9.maegz

> <i_m_source_file_index>
5

> <i_lp_mmshare_version>
49012

> <i_f3d_flags>
0

> <s_epik_input>
W2NIXTFbY0hdW2NIXW5bY0hdYzFPW0NIMl1bQ0gyXU9bQ0gzXQ==

> <s_epik_cmdline>
J2VwaWtfcHl0aG9uJywgJy1waCcsICc3LjAnLCAnLXRuJywgJzgnLCAnLW1hJywgJzIwMCcsICctaW1hZScsICc8aW5maWxlLm1hZT4nLCAnLW9tYWUnLCAnPG91dGZpbGUubWFlPic=

> <r_epik_Ionization_Penalty>
  0.0015

> <r_epik_Ionization_Penalty_Charging>
  0.0000

> <r_epik_Ionization_Penalty_Neutral>
  0.0015

> <r_epik_State_Penalty>
  0.0010

> <r_epik_Charging_Adjusted_Penalty>
0.00103004990713529

> <i_epik_Tot_Q>
0

> <i_epik_Tot_abs_Q>
0

> <s_lp_Force_Field>
OPLS3e

> <r_lp_Energy>
18.68883

> <b_lp_Chiralities_Consistent>
1

> <s_lp_Variant>
Core,ligand-designer_replace-H2O_4-1

> <s_m_job_name>
ReplaceWaterV2_9

> <r_lp_tautomer_probability>
1

> <i_rge_num_r_groups>
1

> <r_rge_occupation_R1>
1

> <s_rge_R1>
ligand-designer_replace-H2O_4

> <s_rge_R1_s_m_title>
ligand-designer_replace-H2O_4

> <s_rge_R1_s_m_entry_id>
25673

> <s_rge_R1_s_m_entry_name>
ligand-designer_replace-H2O.smi-ligprep.5

> <s_rge_R1_s_m_smiles>
[*]COC

> <s_rge_R1_s_m_Source_File>
ligand-designer_replace-H2O.maegz-dedup.maegz-names.maegz

> <i_rge_R1_i_m_Source_File_Index>
5

> <s_rge_R1_s_m_Source_Path>
/Users/konze/projects/pathfinder/r-groups/final-r-groups

> <s_rge_R1_s_canvas_Unique_SMILES_Stereo>
ClCOC

> <i_rge_R1_i_lp_mmshare_version>
42013

> <i_rge_R1_i_f3d_flags>
0

> <i_rge_R1_i_m_stars>
0

> <s_rge_R1_s_m_subgroup_title>
ligand-designer_replace-H2O

> <s_rge_R1_s_m_subgroupid>
ligand-designer_replace-H2O.smi-ligprep111

> <b_rge_R1_b_m_subgroup_collapsed>
1

> <s_rge_R1_s_epik_input>
Q2xbQ0hdMVtDSDJdW05IXVtDSDJdMQ==

> <s_rge_R1_s_epik_cmdline>
J2VwaWtfcHl0aG9uJywgJy1waHQnLCAnMC43JywgJy1waCcsICc3LjAnLCAnLXRuJywgJzgnLCAnLW1hJywgJzIwMCcsICctaW1hZScsICc8aW5maWxlLm1hZT4nLCAnLW9tYWUnLCAnPG91dGZpbGUubWFlPic=

> <r_rge_R1_r_epik_Ionization_Penalty>
0.1115

> <r_rge_R1_r_epik_Ionization_Penalty_Charging>
0.1115

> <r_rge_R1_r_epik_Ionization_Penalty_Neutral>
0

> <r_rge_R1_r_epik_State_Penalty>
0.1013

> <r_rge_R1_r_epik_Charging_Adjusted_Penalty>
0.212781684948892

> <i_rge_R1_i_epik_Tot_Q>
1

> <i_rge_R1_i_epik_Tot_abs_Q>
1

> <s_rge_R1_s_lp_Force_Field>
OPLS_2005

> <r_rge_R1_r_lp_Energy>
9.67123800781254

> <b_rge_R1_b_lp_Chiralities_Consistent>
1

> <s_rge_R1_s_lp_Variant>
Untitled_Molecule_000032-1

> <s_m_subgroup_title>
ReplaceWaterV2_9-out1

> <s_m_subgroupid>
ReplaceWaterV2_9-out1

> <b_m_subgroup_collapsed>
0

$$$$
Core,ligand-designer_replace-H2O_5
                    3D
 Schrodinger Suite 2020-1.
 19 19  0  0  1  0            999 V2000
   -1.9264    1.4017    0.0000 C   0  0  0  0  0  0
   -2.6273    2.5646    0.0000 N   0  0  0  0  0  0
   -1.9245    3.7250    0.0000 C   0  0  0  0  0  0
   -0.5302    3.7663   -0.0000 C   0  0  0  0  0  0
    0.1720    2.5595   -0.0000 C   0  0  0  0  0  0
   -0.5295    1.3399    0.0000 C   0  0  0  0  0  0
    0.0557    0.0883    0.0000 O   0  0  0  0  0  0
    1.4458   -0.0188   -0.0000 C   0  0  0  0  0  0
   -2.5019    4.6378    0.0000 H   0  0  0  0  0  0
   -0.0059    4.7106   -0.0000 H   0  0  0  0  0  0
    1.2512    2.5880   -0.0000 H   0  0  0  0  0  0
    1.8407    0.4549   -0.9023 H   0  0  0  0  0  0
    1.8407    0.4549    0.9023 H   0  0  0  0  0  0
   -2.5131    0.4948    0.0000 H   0  0  0  0  0  0
    1.8201   -1.3582    0.0000 O   0  0  0  0  0  0
    3.2256   -1.5641    0.0000 C   0  0  0  0  0  0
    3.4360   -2.6334    0.0000 H   0  0  0  0  0  0
    3.6933   -1.1326    0.8864 H   0  0  0  0  0  0
    3.6933   -1.1326   -0.8864 H   0  0  0  0  0  0
  1  2  1  0  0  0
  1  6  2  0  0  0
  1 14  1  0  0  0
  2  3  2  0  0  0
  3  4  1  0  0  0
  3  9  1  0  0  0
  4  5  2  0  0  0
  4 10  1  0  0  0
  5  6  1  0  0  0
  5 11  1  0  0  0
  6  7  1  0  0  0
  7  8  1  0  0  0
  8 12  1  0  0  0
  8 13  1  0  0  0
  8 15  1  0  0  0
 15 16  1  0  0  0
 16 17  1  0  0  0
 16 18  1  0  0  0
 16 19  1  0  0  0
M  END
> <i_m_ct_stereo_status>
1

> <i_m_stars>
0

> <s_m_entry_id>
18511

> <s_m_entry_name>
Structure11785

> <s_pdb_PDB_TITLE>
P38 KINASE CRYSTAL STRUCTURE IN COMPLEX WITH SMALL MOLECULE INHIBITOR

> <s_pdb_PDB_ID>
1W7H

> <i_pdb_PDB_Model>
1

> <r_pdb_PDB_CRYST1_a>
45.771

> <r_pdb_PDB_CRYST1_b>
87.101

> <r_pdb_PDB_CRYST1_c>
126.337

> <r_pdb_PDB_CRYST1_alpha>
90

> <r_pdb_PDB_CRYST1_beta>
90

> <r_pdb_PDB_CRYST1_gamma>
90

> <s_pdb_PDB_CRYST1_Space_Group>
P 21 21 21

> <i_pdb_PDB_CRYST1_z>
4

> <s_pdb_PDB_CLASSIFICATION>
TRANSFERASE

> <s_pdb_PDB_DEPOSITION_DATE>
02-SEP-04

> <s_pdb_PDB_format_version>
3.0

> <r_pdb_PDB_RESOLUTION>
2.21

> <s_pdb_PDB_EXPDTA>
X-RAY DIFFRACTION

> <r_pdb_PDB_EXPDTA_TEMPERATURE>
100

> <r_pdb_PDB_EXPDTA_PH>
7

> <s_pdb_PDB_REMARK_350_Biomolecule_1_Transform_1_Chains>
A

> <s_pdb_PDB_REMARK_350_Biomolecule_1_Transform_1_Matrix_1>
1.000000 0.000000 0.000000   0.000000;0.000000 1.000000 0.000000   0.000000;0.000000 0.000000 1.000000   0.000000

> <s_m_Source_Path>
/scratch/alberto/systems/Trials

> <s_m_Source_File>
1w7h_prep.pdb

> <i_m_Source_File_Index>
1

> <s_m_source_file>
ReplaceWaterV2_9.maegz

> <i_m_source_file_index>
6

> <i_lp_mmshare_version>
49012

> <i_f3d_flags>
0

> <s_epik_input>
W2NIXTFbY0hdW2NIXW5bY0hdYzFPW0NIMl1PW0NIM10=

> <s_epik_cmdline>
J2VwaWtfcHl0aG9uJywgJy1waCcsICc3LjAnLCAnLXRuJywgJzgnLCAnLW1hJywgJzIwMCcsICctaW1hZScsICc8aW5maWxlLm1hZT4nLCAnLW9tYWUnLCAnPG91dGZpbGUubWFlPic=

> <r_epik_Ionization_Penalty>
  0.0033

> <r_epik_Ionization_Penalty_Charging>
  0.0000

> <r_epik_Ionization_Penalty_Neutral>
  0.0033

> <r_epik_State_Penalty>
  0.0023

> <r_epik_Charging_Adjusted_Penalty>
0.00229583014674954

> <i_epik_Tot_Q>
0

> <i_epik_Tot_abs_Q>
0

> <s_lp_Force_Field>
OPLS3e

> <r_lp_Energy>
20.701421

> <b_lp_Chiralities_Consistent>
1

> <s_lp_Variant>
Core,ligand-designer_replace-H2O_5-1

> <s_m_job_name>
ReplaceWaterV2_9

> <r_lp_tautomer_probability>
1

> <s_epik_Chemistry_Notes>
This compound contains an acetal/aminal-like group ( X-CH(R)-Y where X, Y are N, S, or O) that may be acid/base labile, releasing an aldehyde.

> <i_rge_num_r_groups>
1

> <r_rge_occupation_R1>
1

> <s_rge_R1>
ligand-designer_replace-H2O_5

> <s_rge_R1_s_m_title>
ligand-designer_replace-H2O_5

> <s_rge_R1_s_m_entry_id>
25674

> <s_rge_R1_s_m_entry_name>
ligand-designer_replace-H2O.smi-ligprep.6

> <s_rge_R1_s_m_smiles>
[*]OC

> <s_rge_R1_s_m_Source_File>
ligand-designer_replace-H2O.maegz-dedup.maegz-names.maegz

> <i_rge_R1_i_m_Source_File_Index>
6

> <s_rge_R1_s_m_Source_Path>
/Users/konze/projects/pathfinder/r-groups/final-r-groups

> <s_rge_R1_s_canvas_Unique_SMILES_Stereo>
COCl

> <i_rge_R1_i_lp_mmshare_version>
42013

> <i_rge_R1_i_f3d_flags>
0

> <i_rge_R1_i_m_stars>
0

> <s_rge_R1_s_m_subgroup_title>
ligand-designer_replace-H2O

> <s_rge_R1_s_m_subgroupid>
ligand-designer_replace-H2O.smi-ligprep111

> <b_rge_R1_b_m_subgroup_collapsed>
1

> <s_rge_R1_s_epik_input>
Q2xbQ0hdMVtDSDJdW05IXVtDSDJdMQ==

> <s_rge_R1_s_epik_cmdline>
J2VwaWtfcHl0aG9uJywgJy1waHQnLCAnMC43JywgJy1waCcsICc3LjAnLCAnLXRuJywgJzgnLCAnLW1hJywgJzIwMCcsICctaW1hZScsICc8aW5maWxlLm1hZT4nLCAnLW9tYWUnLCAnPG91dGZpbGUubWFlPic=

> <r_rge_R1_r_epik_Ionization_Penalty>
0.1115

> <r_rge_R1_r_epik_Ionization_Penalty_Charging>
0.1115

> <r_rge_R1_r_epik_Ionization_Penalty_Neutral>
0

> <r_rge_R1_r_epik_State_Penalty>
0.1013

> <r_rge_R1_r_epik_Charging_Adjusted_Penalty>
0.212781684948892

> <i_rge_R1_i_epik_Tot_Q>
1

> <i_rge_R1_i_epik_Tot_abs_Q>
1

> <s_rge_R1_s_lp_Force_Field>
OPLS_2005

> <r_rge_R1_r_lp_Energy>
9.67123800781254

> <b_rge_R1_b_lp_Chiralities_Consistent>
1

> <s_rge_R1_s_lp_Variant>
Untitled_Molecule_000032-1

> <s_m_subgroup_title>
ReplaceWaterV2_9-out1

> <s_m_subgroupid>
ReplaceWaterV2_9-out1

> <b_m_subgroup_collapsed>
0

$$$$
Core,ligand-designer_replace-H2O_6
                    3D
 Schrodinger Suite 2020-1.
 23 24  0  0  1  0            999 V2000
   -1.9153    1.3671   -0.0065 C   0  0  0  0  0  0
   -2.6511    2.5082   -0.0194 N   0  0  0  0  0  0
   -1.9844    3.6895    0.0014 C   0  0  0  0  0  0
   -0.5924    3.7732    0.0371 C   0  0  0  0  0  0
    0.1461    2.5883    0.0505 C   0  0  0  0  0  0
   -0.5176    1.3483    0.0256 C   0  0  0  0  0  0
    0.1049    0.1156    0.0292 O   0  0  0  0  0  0
    1.5286    0.0596    0.0234 C   0  0  0  0  0  0
   -2.5894    4.5842   -0.0116 H   0  0  0  0  0  0
   -0.0966    4.7326    0.0532 H   0  0  0  0  0  0
    1.2234    2.6503    0.0798 H   0  0  0  0  0  0
    1.9285    0.6055   -0.8334 H   0  0  0  0  0  0
    1.9298    0.5187    0.9285 H   0  0  0  0  0  0
   -2.4736    0.4427   -0.0251 H   0  0  0  0  0  0
    1.9656   -1.4122   -0.0468 C   0  0  1  0  0  0
    1.8607   -2.0888   -1.4199 C   0  0  0  0  0  0
    3.3852   -2.2353   -1.3827 C   0  0  0  0  0  0
    3.4508   -1.5261   -0.0729 O   0  0  0  0  0  0
    1.5794   -1.9851    0.7980 H   0  0  0  0  0  0
    1.3106   -3.0300   -1.4105 H   0  0  0  0  0  0
    1.4876   -1.4472   -2.2190 H   0  0  0  0  0  0
    3.7615   -3.2517   -1.2597 H   0  0  0  0  0  0
    3.9336   -1.6581   -2.1284 H   0  0  0  0  0  0
  1  2  1  0  0  0
  1  6  2  0  0  0
  1 14  1  0  0  0
  2  3  2  0  0  0
  3  4  1  0  0  0
  3  9  1  0  0  0
  4  5  2  0  0  0
  4 10  1  0  0  0
  5  6  1  0  0  0
  5 11  1  0  0  0
  6  7  1  0  0  0
  7  8  1  0  0  0
  8 12  1  0  0  0
  8 13  1  0  0  0
  8 15  1  0  0  0
 15 18  1  0  0  0
 15 16  1  0  0  0
 15 19  1  0  0  0
 16 17  1  0  0  0
 16 20  1  0  0  0
 16 21  1  0  0  0
 17 18  1  0  0  0
 17 22  1  0  0  0
 17 23  1  0  0  0
M  END
> <i_m_ct_stereo_status>
1

> <i_m_stars>
0

> <s_m_entry_id>
18512

> <s_m_entry_name>
Structure11785

> <s_pdb_PDB_TITLE>
P38 KINASE CRYSTAL STRUCTURE IN COMPLEX WITH SMALL MOLECULE INHIBITOR

> <s_pdb_PDB_ID>
1W7H

> <i_pdb_PDB_Model>
1

> <r_pdb_PDB_CRYST1_a>
45.771

> <r_pdb_PDB_CRYST1_b>
87.101

> <r_pdb_PDB_CRYST1_c>
126.337

> <r_pdb_PDB_CRYST1_alpha>
90

> <r_pdb_PDB_CRYST1_beta>
90

> <r_pdb_PDB_CRYST1_gamma>
90

> <s_pdb_PDB_CRYST1_Space_Group>
P 21 21 21

> <i_pdb_PDB_CRYST1_z>
4

> <s_pdb_PDB_CLASSIFICATION>
TRANSFERASE

> <s_pdb_PDB_DEPOSITION_DATE>
02-SEP-04

> <s_pdb_PDB_format_version>
3.0

> <r_pdb_PDB_RESOLUTION>
2.21

> <s_pdb_PDB_EXPDTA>
X-RAY DIFFRACTION

> <r_pdb_PDB_EXPDTA_TEMPERATURE>
100

> <r_pdb_PDB_EXPDTA_PH>
7

> <s_pdb_PDB_REMARK_350_Biomolecule_1_Transform_1_Chains>
A

> <s_pdb_PDB_REMARK_350_Biomolecule_1_Transform_1_Matrix_1>
1.000000 0.000000 0.000000   0.000000;0.000000 1.000000 0.000000   0.000000;0.000000 0.000000 1.000000   0.000000

> <s_m_Source_Path>
/scratch/alberto/systems/Trials

> <s_m_Source_File>
1w7h_prep.pdb

> <i_m_Source_File_Index>
1

> <s_m_source_file>
ReplaceWaterV2_9.maegz

> <i_m_source_file_index>
7

> <i_lp_mmshare_version>
49012

> <i_f3d_flags>
0

> <s_epik_input>
W2NIXTFbY0hdW2NIXW5bY0hdYzFPW0NIMl1bQ0BIXTJbQ0gyXVtDSDJdTzI=

> <s_epik_cmdline>
J2VwaWtfcHl0aG9uJywgJy1waCcsICc3LjAnLCAnLXRuJywgJzgnLCAnLW1hJywgJzIwMCcsICctaW1hZScsICc8aW5maWxlLm1hZT4nLCAnLW9tYWUnLCAnPG91dGZpbGUubWFlPic=

> <r_epik_Ionization_Penalty>
  0.0114

> <r_epik_Ionization_Penalty_Charging>
  0.0000

> <r_epik_Ionization_Penalty_Neutral>
  0.0114

> <r_epik_State_Penalty>
  0.0088

> <r_epik_Charging_Adjusted_Penalty>
0.00879381046737718

> <i_epik_Tot_Q>
0

> <i_epik_Tot_abs_Q>
0

> <s_lp_Force_Field>
OPLS3e

> <r_lp_Energy>
15.510153

> <b_lp_Chiralities_Consistent>
1

> <s_lp_Variant>
Core,ligand-designer_replace-H2O_6-1

> <s_m_job_name>
ReplaceWaterV2_9

> <r_lp_tautomer_probability>
1

> <i_rge_num_r_groups>
1

> <r_rge_occupation_R1>
1

> <s_rge_R1>
ligand-designer_replace-H2O_6

> <s_rge_R1_s_m_title>
ligand-designer_replace-H2O_6

> <s_rge_R1_s_m_entry_id>
25675

> <s_rge_R1_s_m_entry_name>
ligand-designer_replace-H2O.smi-ligprep.8

> <s_rge_R1_s_m_smiles>
[*][C@H]1CCO1

> <s_rge_R1_s_m_Source_File>
ligand-designer_replace-H2O.maegz-dedup.maegz-names.maegz

> <i_rge_R1_i_m_Source_File_Index>
7

> <s_rge_R1_s_m_Source_Path>
/Users/konze/projects/pathfinder/r-groups/final-r-groups

> <s_rge_R1_s_canvas_Unique_SMILES_Stereo>
Cl[C@H]1CCO1

> <s_rge_R1_s_st_Chirality_1>
2_S_1_5_3_6

> <i_rge_R1_i_lp_mmshare_version>
42013

> <i_rge_R1_i_f3d_flags>
0

> <i_rge_R1_i_m_stars>
0

> <s_rge_R1_s_m_subgroup_title>
ligand-designer_replace-H2O

> <s_rge_R1_s_m_subgroupid>
ligand-designer_replace-H2O.smi-ligprep111

> <b_rge_R1_b_m_subgroup_collapsed>
1

> <s_rge_R1_s_epik_input>
Q2xbQ0BIXTFbQ0gyXVtDSDJdTzE=

> <s_rge_R1_s_epik_cmdline>
J2VwaWtfcHl0aG9uJywgJy1waHQnLCAnMC43JywgJy1waCcsICc3LjAnLCAnLXRuJywgJzgnLCAnLW1hJywgJzIwMCcsICctaW1hZScsICc8aW5maWxlLm1hZT4nLCAnLW9tYWUnLCAnPG91dGZpbGUubWFlPic=

> <r_rge_R1_r_epik_Ionization_Penalty>
0

> <r_rge_R1_r_epik_Ionization_Penalty_Charging>
0

> <r_rge_R1_r_epik_Ionization_Penalty_Neutral>
0

> <r_rge_R1_r_epik_State_Penalty>
0

> <r_rge_R1_r_epik_Charging_Adjusted_Penalty>
0

> <i_rge_R1_i_epik_Tot_Q>
0

> <i_rge_R1_i_epik_Tot_abs_Q>
0

> <s_rge_R1_s_lp_Force_Field>
OPLS_2005

> <r_rge_R1_r_lp_Energy>
10.1417554946627

> <b_rge_R1_b_lp_Chiralities_Consistent>
1

> <s_rge_R1_s_lp_Variant>
Untitled_Molecule_000036-1

> <r_rge_R1_r_lp_tautomer_probability>
1

> <r_rge_R1_r_m_Shape_Sim>
0.796007596090547

> <s_m_subgroup_title>
ReplaceWaterV2_9-out1

> <s_m_subgroupid>
ReplaceWaterV2_9-out1

> <b_m_subgroup_collapsed>
0

$$$$
Core,ligand-designer_replace-H2O_6
                    3D
 Schrodinger Suite 2020-1.
 24 25  0  0  1  0            999 V2000
    0.1661    2.5997    0.0417 C   0  0  0  0  0  0
   -0.5350    3.7511    0.0665 N   0  3  0  0  0  0
   -1.8815    3.7956    0.0485 C   0  0  0  0  0  0
   -2.6042    2.6018    0.0023 C   0  0  0  0  0  0
   -1.9139    1.3861   -0.0245 C   0  0  0  0  0  0
   -0.5135    1.3684   -0.0051 C   0  0  0  0  0  0
    0.1048    0.1342   -0.0333 O   0  0  0  0  0  0
    1.5286    0.0736   -0.0221 C   0  0  0  0  0  0
   -2.3259    4.7801    0.0720 H   0  0  0  0  0  0
   -3.6844    2.6163   -0.0122 H   0  0  0  0  0  0
   -2.4651    0.4573   -0.0603 H   0  0  0  0  0  0
    1.9382    0.6042   -0.8840 H   0  0  0  0  0  0
    1.9236    0.5464    0.8787 H   0  0  0  0  0  0
    1.2395    2.7167    0.0608 H   0  0  0  0  0  0
    1.9632   -1.3999   -0.0570 C   0  0  1  0  0  0
    1.8666   -2.1093   -1.4139 C   0  0  0  0  0  0
    3.3899   -2.2640   -1.3587 C   0  0  0  0  0  0
    3.4484   -1.5136   -0.0717 O   0  0  0  0  0  0
    1.5721   -1.9527    0.7990 H   0  0  0  0  0  0
    1.3115   -3.0472   -1.3862 H   0  0  0  0  0  0
    1.5045   -1.4860   -2.2326 H   0  0  0  0  0  0
    3.7589   -3.2783   -1.1998 H   0  0  0  0  0  0
    3.9487   -1.7148   -2.1177 H   0  0  0  0  0  0
   -0.0260    4.6234    0.1008 H   0  0  0  0  0  0
  1  2  1  0  0  0
  1  6  2  0  0  0
  1 14  1  0  0  0
  2  3  2  0  0  0
  2 24  1  0  0  0
  3  4  1  0  0  0
  3  9  1  0  0  0
  4  5  2  0  0  0
  4 10  1  0  0  0
  5  6  1  0  0  0
  5 11  1  0  0  0
  6  7  1  0  0  0
  7  8  1  0  0  0
  8 12  1  0  0  0
  8 13  1  0  0  0
  8 15  1  0  0  0
 15 18  1  0  0  0
 15 16  1  0  0  0
 15 19  1  0  0  0
 16 17  1  0  0  0
 16 20  1  0  0  0
 16 21  1  0  0  0
 17 18  1  0  0  0
 17 22  1  0  0  0
 17 23  1  0  0  0
M  CHG  1   2   1
M  END
> <i_m_ct_stereo_status>
1

> <i_m_stars>
0

> <s_m_entry_id>
18513

> <s_m_entry_name>
Structure11785

> <s_pdb_PDB_TITLE>
P38 KINASE CRYSTAL STRUCTURE IN COMPLEX WITH SMALL MOLECULE INHIBITOR

> <s_pdb_PDB_ID>
1W7H

> <i_pdb_PDB_Model>
1

> <r_pdb_PDB_CRYST1_a>
45.771

> <r_pdb_PDB_CRYST1_b>
87.101

> <r_pdb_PDB_CRYST1_c>
126.337

> <r_pdb_PDB_CRYST1_alpha>
90

> <r_pdb_PDB_CRYST1_beta>
90

> <r_pdb_PDB_CRYST1_gamma>
90

> <s_pdb_PDB_CRYST1_Space_Group>
P 21 21 21

> <i_pdb_PDB_CRYST1_z>
4

> <s_pdb_PDB_CLASSIFICATION>
TRANSFERASE

> <s_pdb_PDB_DEPOSITION_DATE>
02-SEP-04

> <s_pdb_PDB_format_version>
3.0

> <r_pdb_PDB_RESOLUTION>
2.21

> <s_pdb_PDB_EXPDTA>
X-RAY DIFFRACTION

> <r_pdb_PDB_EXPDTA_TEMPERATURE>
100

> <r_pdb_PDB_EXPDTA_PH>
7

> <s_pdb_PDB_REMARK_350_Biomolecule_1_Transform_1_Chains>
A

> <s_pdb_PDB_REMARK_350_Biomolecule_1_Transform_1_Matrix_1>
1.000000 0.000000 0.000000   0.000000;0.000000 1.000000 0.000000   0.000000;0.000000 0.000000 1.000000   0.000000

> <s_m_Source_Path>
/scratch/alberto/systems/Trials

> <s_m_Source_File>
1w7h_prep.pdb

> <i_m_Source_File_Index>
1

> <s_m_source_file>
ReplaceWaterV2_9.maegz

> <i_m_source_file_index>
7

> <i_lp_mmshare_version>
49012

> <i_f3d_flags>
0

> <s_epik_input>
W2NIXTFbY0hdW2NIXW5bY0hdYzFPW0NIMl1bQ0BIXTJbQ0gyXVtDSDJdTzI=

> <s_epik_cmdline>
J2VwaWtfcHl0aG9uJywgJy1waCcsICc3LjAnLCAnLXRuJywgJzgnLCAnLW1hJywgJzIwMCcsICctaW1hZScsICc8aW5maWxlLm1hZT4nLCAnLW9tYWUnLCAnPG91dGZpbGUubWFlPic=

> <r_epik_Ionization_Penalty>
  2.3450

> <r_epik_Ionization_Penalty_Charging>
  2.3450

> <r_epik_Ionization_Penalty_Neutral>
  0.0000

> <r_epik_State_Penalty>
  2.4989

> <r_epik_Charging_Adjusted_Penalty>
4.84393911678182

> <i_epik_Tot_Q>
1

> <i_epik_Tot_abs_Q>
1

> <s_lp_Force_Field>
OPLS3e

> <r_lp_Energy>
19.349421

> <b_lp_Chiralities_Consistent>
1

> <s_lp_Variant>
Core,ligand-designer_replace-H2O_6-2

> <s_m_job_name>
ReplaceWaterV2_9

> <i_rge_num_r_groups>
1

> <r_rge_occupation_R1>
1

> <s_rge_R1>
ligand-designer_replace-H2O_6

> <s_rge_R1_s_m_title>
ligand-designer_replace-H2O_6

> <s_rge_R1_s_m_entry_id>
25675

> <s_rge_R1_s_m_entry_name>
ligand-designer_replace-H2O.smi-ligprep.8

> <s_rge_R1_s_m_smiles>
[*][C@H]1CCO1

> <s_rge_R1_s_m_Source_File>
ligand-designer_replace-H2O.maegz-dedup.maegz-names.maegz

> <i_rge_R1_i_m_Source_File_Index>
7

> <s_rge_R1_s_m_Source_Path>
/Users/konze/projects/pathfinder/r-groups/final-r-groups

> <s_rge_R1_s_canvas_Unique_SMILES_Stereo>
Cl[C@H]1CCO1

> <s_rge_R1_s_st_Chirality_1>
2_S_1_5_3_6

> <i_rge_R1_i_lp_mmshare_version>
42013

> <i_rge_R1_i_f3d_flags>
0

> <i_rge_R1_i_m_stars>
0

> <s_rge_R1_s_m_subgroup_title>
ligand-designer_replace-H2O

> <s_rge_R1_s_m_subgroupid>
ligand-designer_replace-H2O.smi-ligprep111

> <b_rge_R1_b_m_subgroup_collapsed>
1

> <s_rge_R1_s_epik_input>
Q2xbQ0BIXTFbQ0gyXVtDSDJdTzE=

> <s_rge_R1_s_epik_cmdline>
J2VwaWtfcHl0aG9uJywgJy1waHQnLCAnMC43JywgJy1waCcsICc3LjAnLCAnLXRuJywgJzgnLCAnLW1hJywgJzIwMCcsICctaW1hZScsICc8aW5maWxlLm1hZT4nLCAnLW9tYWUnLCAnPG91dGZpbGUubWFlPic=

> <r_rge_R1_r_epik_Ionization_Penalty>
0

> <r_rge_R1_r_epik_Ionization_Penalty_Charging>
0

> <r_rge_R1_r_epik_Ionization_Penalty_Neutral>
0

> <r_rge_R1_r_epik_State_Penalty>
0

> <r_rge_R1_r_epik_Charging_Adjusted_Penalty>
0

> <i_rge_R1_i_epik_Tot_Q>
0

> <i_rge_R1_i_epik_Tot_abs_Q>
0

> <s_rge_R1_s_lp_Force_Field>
OPLS_2005

> <r_rge_R1_r_lp_Energy>
10.1417554946627

> <b_rge_R1_b_lp_Chiralities_Consistent>
1

> <s_rge_R1_s_lp_Variant>
Untitled_Molecule_000036-1

> <r_rge_R1_r_lp_tautomer_probability>
1

> <r_rge_R1_r_m_Shape_Sim>
0.796007596090547

> <s_m_subgroup_title>
ReplaceWaterV2_9-out1

> <s_m_subgroupid>
ReplaceWaterV2_9-out1

> <b_m_subgroup_collapsed>
0

$$$$
Core,ligand-designer_replace-H2O_7
                    3D
 Schrodinger Suite 2020-1.
 23 24  0  0  1  0            999 V2000
   -1.9084    1.3850    0.0324 C   0  0  0  0  0  0
   -2.6204    2.5411    0.0355 N   0  0  0  0  0  0
   -1.9291    3.7081    0.0104 C   0  0  0  0  0  0
   -0.5355    3.7624   -0.0181 C   0  0  0  0  0  0
    0.1783    2.5625   -0.0206 C   0  0  0  0  0  0
   -0.5112    1.3368    0.0055 C   0  0  0  0  0  0
    0.0857    0.0915    0.0073 O   0  0  0  0  0  0
    1.5075    0.0053   -0.0224 C   0  0  0  0  0  0
   -2.5154    4.6152    0.0133 H   0  0  0  0  0  0
   -0.0198    4.7112   -0.0372 H   0  0  0  0  0  0
    1.2567    2.6021   -0.0423 H   0  0  0  0  0  0
    1.8981    0.4807   -0.9238 H   0  0  0  0  0  0
    1.9384    0.5189    0.8395 H   0  0  0  0  0  0
   -2.4863    0.4729    0.0522 H   0  0  0  0  0  0
    1.9126   -1.4771   -0.0090 C   0  0  2  0  0  0
    1.8375   -2.1932    1.3457 C   0  0  0  0  0  0
    3.3543   -2.3839    1.2461 C   0  0  0  0  0  0
    3.3948   -1.6260   -0.0371 O   0  0  0  0  0  0
    1.4858   -2.0153   -0.8570 H   0  0  0  0  0  0
    1.5144   -1.5665    2.1779 H   0  0  0  0  0  0
    1.2585   -3.1169    1.3286 H   0  0  0  0  0  0
    3.9476   -1.8536    1.9922 H   0  0  0  0  0  0
    3.6939   -3.4056    1.0701 H   0  0  0  0  0  0
  1  2  1  0  0  0
  1  6  2  0  0  0
  1 14  1  0  0  0
  2  3  2  0  0  0
  3  4  1  0  0  0
  3  9  1  0  0  0
  4  5  2  0  0  0
  4 10  1  0  0  0
  5  6  1  0  0  0
  5 11  1  0  0  0
  6  7  1  0  0  0
  7  8  1  0  0  0
  8 12  1  0  0  0
  8 13  1  0  0  0
  8 15  1  0  0  0
 15 18  1  0  0  0
 15 16  1  0  0  0
 15 19  1  0  0  0
 16 17  1  0  0  0
 16 20  1  0  0  0
 16 21  1  0  0  0
 17 18  1  0  0  0
 17 22  1  0  0  0
 17 23  1  0  0  0
M  END
> <i_m_ct_stereo_status>
1

> <i_m_stars>
0

> <s_m_entry_id>
18514

> <s_m_entry_name>
Structure11785

> <s_pdb_PDB_TITLE>
P38 KINASE CRYSTAL STRUCTURE IN COMPLEX WITH SMALL MOLECULE INHIBITOR

> <s_pdb_PDB_ID>
1W7H

> <i_pdb_PDB_Model>
1

> <r_pdb_PDB_CRYST1_a>
45.771

> <r_pdb_PDB_CRYST1_b>
87.101

> <r_pdb_PDB_CRYST1_c>
126.337

> <r_pdb_PDB_CRYST1_alpha>
90

> <r_pdb_PDB_CRYST1_beta>
90

> <r_pdb_PDB_CRYST1_gamma>
90

> <s_pdb_PDB_CRYST1_Space_Group>
P 21 21 21

> <i_pdb_PDB_CRYST1_z>
4

> <s_pdb_PDB_CLASSIFICATION>
TRANSFERASE

> <s_pdb_PDB_DEPOSITION_DATE>
02-SEP-04

> <s_pdb_PDB_format_version>
3.0

> <r_pdb_PDB_RESOLUTION>
2.21

> <s_pdb_PDB_EXPDTA>
X-RAY DIFFRACTION

> <r_pdb_PDB_EXPDTA_TEMPERATURE>
100

> <r_pdb_PDB_EXPDTA_PH>
7

> <s_pdb_PDB_REMARK_350_Biomolecule_1_Transform_1_Chains>
A

> <s_pdb_PDB_REMARK_350_Biomolecule_1_Transform_1_Matrix_1>
1.000000 0.000000 0.000000   0.000000;0.000000 1.000000 0.000000   0.000000;0.000000 0.000000 1.000000   0.000000

> <s_m_Source_Path>
/scratch/alberto/systems/Trials

> <s_m_Source_File>
1w7h_prep.pdb

> <i_m_Source_File_Index>
1

> <s_m_source_file>
ReplaceWaterV2_9.maegz

> <i_m_source_file_index>
8

> <i_lp_mmshare_version>
49012

> <i_f3d_flags>
0

> <s_epik_input>
W2NIXTFbY0hdW2NIXW5bY0hdYzFPW0NIMl1bQ0BASF0yW0NIMl1bQ0gyXU8y

> <s_epik_cmdline>
J2VwaWtfcHl0aG9uJywgJy1waCcsICc3LjAnLCAnLXRuJywgJzgnLCAnLW1hJywgJzIwMCcsICctaW1hZScsICc8aW5maWxlLm1hZT4nLCAnLW9tYWUnLCAnPG91dGZpbGUubWFlPic=

> <r_epik_Ionization_Penalty>
  0.0114

> <r_epik_Ionization_Penalty_Charging>
  0.0000

> <r_epik_Ionization_Penalty_Neutral>
  0.0114

> <r_epik_State_Penalty>
  0.0088

> <r_epik_Charging_Adjusted_Penalty>
0.00879381046737718

> <i_epik_Tot_Q>
0

> <i_epik_Tot_abs_Q>
0

> <s_lp_Force_Field>
OPLS3e

> <r_lp_Energy>
15.600855

> <b_lp_Chiralities_Consistent>
1

> <s_lp_Variant>
Core,ligand-designer_replace-H2O_7-1

> <s_m_job_name>
ReplaceWaterV2_9

> <r_lp_tautomer_probability>
1

> <i_rge_num_r_groups>
1

> <r_rge_occupation_R1>
1

> <s_rge_R1>
ligand-designer_replace-H2O_7

> <s_rge_R1_s_m_title>
ligand-designer_replace-H2O_7

> <s_rge_R1_s_m_entry_id>
25676

> <s_rge_R1_s_m_entry_name>
ligand-designer_replace-H2O.smi-ligprep.9

> <s_rge_R1_s_m_smiles>
[*][C@@H]1CCO1

> <s_rge_R1_s_m_Source_File>
ligand-designer_replace-H2O.maegz-dedup.maegz-names.maegz

> <i_rge_R1_i_m_Source_File_Index>
8

> <s_rge_R1_s_m_Source_Path>
/Users/konze/projects/pathfinder/r-groups/final-r-groups

> <s_rge_R1_s_canvas_Unique_SMILES_Stereo>
Cl[C@@H]1CCO1

> <s_rge_R1_s_st_Chirality_1>
2_R_1_5_3_6

> <i_rge_R1_i_lp_mmshare_version>
42013

> <i_rge_R1_i_f3d_flags>
0

> <i_rge_R1_i_m_stars>
0

> <s_rge_R1_s_m_subgroup_title>
ligand-designer_replace-H2O

> <s_rge_R1_s_m_subgroupid>
ligand-designer_replace-H2O.smi-ligprep111

> <b_rge_R1_b_m_subgroup_collapsed>
1

> <s_rge_R1_s_epik_input>
Q2xbQ0BIXTFbQ0gyXVtDSDJdTzE=

> <s_rge_R1_s_epik_cmdline>
J2VwaWtfcHl0aG9uJywgJy1waHQnLCAnMC43JywgJy1waCcsICc3LjAnLCAnLXRuJywgJzgnLCAnLW1hJywgJzIwMCcsICctaW1hZScsICc8aW5maWxlLm1hZT4nLCAnLW9tYWUnLCAnPG91dGZpbGUubWFlPic=

> <r_rge_R1_r_epik_Ionization_Penalty>
0

> <r_rge_R1_r_epik_Ionization_Penalty_Charging>
0

> <r_rge_R1_r_epik_Ionization_Penalty_Neutral>
0

> <r_rge_R1_r_epik_State_Penalty>
0

> <r_rge_R1_r_epik_Charging_Adjusted_Penalty>
0

> <i_rge_R1_i_epik_Tot_Q>
0

> <i_rge_R1_i_epik_Tot_abs_Q>
0

> <s_rge_R1_s_lp_Force_Field>
OPLS_2005

> <r_rge_R1_r_lp_Energy>
10.1416895040246

> <b_rge_R1_b_lp_Chiralities_Consistent>
1

> <s_rge_R1_s_lp_Variant>
Untitled_Molecule_000036-2

> <r_rge_R1_r_lp_tautomer_probability>
1

> <r_rge_R1_r_m_Shape_Sim>
0.793957388991686

> <s_m_subgroup_title>
ReplaceWaterV2_9-out1

> <s_m_subgroupid>
ReplaceWaterV2_9-out1

> <b_m_subgroup_collapsed>
0

$$$$
Core,ligand-designer_replace-H2O_7
                    3D
 Schrodinger Suite 2020-1.
 24 25  0  0  1  0            999 V2000
    0.1992    2.5627   -0.0208 C   0  0  0  0  0  0
   -0.4773    3.7290   -0.0199 N   0  3  0  0  0  0
   -1.8225    3.8018    0.0018 C   0  0  0  0  0  0
   -2.5704    2.6229    0.0243 C   0  0  0  0  0  0
   -1.9062    1.3924    0.0249 C   0  0  0  0  0  0
   -0.5064    1.3454    0.0026 C   0  0  0  0  0  0
    0.0859    0.0983    0.0052 O   0  0  0  0  0  0
    1.5080    0.0078   -0.0205 C   0  0  0  0  0  0
   -2.2459    4.7959   -0.0000 H   0  0  0  0  0  0
   -3.6501    2.6598    0.0409 H   0  0  0  0  0  0
   -2.4775    0.4755    0.0424 H   0  0  0  0  0  0
    1.9031    0.4823   -0.9205 H   0  0  0  0  0  0
    1.9386    0.5201    0.8421 H   0  0  0  0  0  0
    1.2747    2.6575   -0.0400 H   0  0  0  0  0  0
    1.9102   -1.4753   -0.0069 C   0  0  2  0  0  0
    1.8349   -2.1915    1.3478 C   0  0  0  0  0  0
    3.3508   -2.3888    1.2445 C   0  0  0  0  0  0
    3.3921   -1.6243   -0.0348 O   0  0  0  0  0  0
    1.4834   -2.0134   -0.8552 H   0  0  0  0  0  0
    1.5173   -1.5641    2.1813 H   0  0  0  0  0  0
    1.2518   -3.1126    1.3317 H   0  0  0  0  0  0
    3.9479   -1.8654    1.9924 H   0  0  0  0  0  0
    3.6859   -3.4110    1.0626 H   0  0  0  0  0  0
    0.0503    4.5905   -0.0365 H   0  0  0  0  0  0
  1  2  1  0  0  0
  1  6  2  0  0  0
  1 14  1  0  0  0
  2  3  2  0  0  0
  2 24  1  0  0  0
  3  4  1  0  0  0
  3  9  1  0  0  0
  4  5  2  0  0  0
  4 10  1  0  0  0
  5  6  1  0  0  0
  5 11  1  0  0  0
  6  7  1  0  0  0
  7  8  1  0  0  0
  8 12  1  0  0  0
  8 13  1  0  0  0
  8 15  1  0  0  0
 15 18  1  0  0  0
 15 16  1  0  0  0
 15 19  1  0  0  0
 16 17  1  0  0  0
 16 20  1  0  0  0
 16 21  1  0  0  0
 17 18  1  0  0  0
 17 22  1  0  0  0
 17 23  1  0  0  0
M  CHG  1   2   1
M  END
> <i_m_ct_stereo_status>
1

> <i_m_stars>
0

> <s_m_entry_id>
18515

> <s_m_entry_name>
Structure11785

> <s_pdb_PDB_TITLE>
P38 KINASE CRYSTAL STRUCTURE IN COMPLEX WITH SMALL MOLECULE INHIBITOR

> <s_pdb_PDB_ID>
1W7H

> <i_pdb_PDB_Model>
1

> <r_pdb_PDB_CRYST1_a>
45.771

> <r_pdb_PDB_CRYST1_b>
87.101

> <r_pdb_PDB_CRYST1_c>
126.337

> <r_pdb_PDB_CRYST1_alpha>
90

> <r_pdb_PDB_CRYST1_beta>
90

> <r_pdb_PDB_CRYST1_gamma>
90

> <s_pdb_PDB_CRYST1_Space_Group>
P 21 21 21

> <i_pdb_PDB_CRYST1_z>
4

> <s_pdb_PDB_CLASSIFICATION>
TRANSFERASE

> <s_pdb_PDB_DEPOSITION_DATE>
02-SEP-04

> <s_pdb_PDB_format_version>
3.0

> <r_pdb_PDB_RESOLUTION>
2.21

> <s_pdb_PDB_EXPDTA>
X-RAY DIFFRACTION

> <r_pdb_PDB_EXPDTA_TEMPERATURE>
100

> <r_pdb_PDB_EXPDTA_PH>
7

> <s_pdb_PDB_REMARK_350_Biomolecule_1_Transform_1_Chains>
A

> <s_pdb_PDB_REMARK_350_Biomolecule_1_Transform_1_Matrix_1>
1.000000 0.000000 0.000000   0.000000;0.000000 1.000000 0.000000   0.000000;0.000000 0.000000 1.000000   0.000000

> <s_m_Source_Path>
/scratch/alberto/systems/Trials

> <s_m_Source_File>
1w7h_prep.pdb

> <i_m_Source_File_Index>
1

> <s_m_source_file>
ReplaceWaterV2_9.maegz

> <i_m_source_file_index>
8

> <i_lp_mmshare_version>
49012

> <i_f3d_flags>
0

> <s_epik_input>
W2NIXTFbY0hdW2NIXW5bY0hdYzFPW0NIMl1bQ0BASF0yW0NIMl1bQ0gyXU8y

> <s_epik_cmdline>
J2VwaWtfcHl0aG9uJywgJy1waCcsICc3LjAnLCAnLXRuJywgJzgnLCAnLW1hJywgJzIwMCcsICctaW1hZScsICc8aW5maWxlLm1hZT4nLCAnLW9tYWUnLCAnPG91dGZpbGUubWFlPic=

> <r_epik_Ionization_Penalty>
  2.3450

> <r_epik_Ionization_Penalty_Charging>
  2.3450

> <r_epik_Ionization_Penalty_Neutral>
  0.0000

> <r_epik_State_Penalty>
  2.4989

> <r_epik_Charging_Adjusted_Penalty>
4.84393911678182

> <i_epik_Tot_Q>
1

> <i_epik_Tot_abs_Q>
1

> <s_lp_Force_Field>
OPLS3e

> <r_lp_Energy>
19.351983

> <b_lp_Chiralities_Consistent>
1

> <s_lp_Variant>
Core,ligand-designer_replace-H2O_7-2

> <s_m_job_name>
ReplaceWaterV2_9

> <i_rge_num_r_groups>
1

> <r_rge_occupation_R1>
1

> <s_rge_R1>
ligand-designer_replace-H2O_7

> <s_rge_R1_s_m_title>
ligand-designer_replace-H2O_7

> <s_rge_R1_s_m_entry_id>
25676

> <s_rge_R1_s_m_entry_name>
ligand-designer_replace-H2O.smi-ligprep.9

> <s_rge_R1_s_m_smiles>
[*][C@@H]1CCO1

> <s_rge_R1_s_m_Source_File>
ligand-designer_replace-H2O.maegz-dedup.maegz-names.maegz

> <i_rge_R1_i_m_Source_File_Index>
8

> <s_rge_R1_s_m_Source_Path>
/Users/konze/projects/pathfinder/r-groups/final-r-groups

> <s_rge_R1_s_canvas_Unique_SMILES_Stereo>
Cl[C@@H]1CCO1

> <s_rge_R1_s_st_Chirality_1>
2_R_1_5_3_6

> <i_rge_R1_i_lp_mmshare_version>
42013

> <i_rge_R1_i_f3d_flags>
0

> <i_rge_R1_i_m_stars>
0

> <s_rge_R1_s_m_subgroup_title>
ligand-designer_replace-H2O

> <s_rge_R1_s_m_subgroupid>
ligand-designer_replace-H2O.smi-ligprep111

> <b_rge_R1_b_m_subgroup_collapsed>
1

> <s_rge_R1_s_epik_input>
Q2xbQ0BIXTFbQ0gyXVtDSDJdTzE=

> <s_rge_R1_s_epik_cmdline>
J2VwaWtfcHl0aG9uJywgJy1waHQnLCAnMC43JywgJy1waCcsICc3LjAnLCAnLXRuJywgJzgnLCAnLW1hJywgJzIwMCcsICctaW1hZScsICc8aW5maWxlLm1hZT4nLCAnLW9tYWUnLCAnPG91dGZpbGUubWFlPic=

> <r_rge_R1_r_epik_Ionization_Penalty>
0

> <r_rge_R1_r_epik_Ionization_Penalty_Charging>
0

> <r_rge_R1_r_epik_Ionization_Penalty_Neutral>
0

> <r_rge_R1_r_epik_State_Penalty>
0

> <r_rge_R1_r_epik_Charging_Adjusted_Penalty>
0

> <i_rge_R1_i_epik_Tot_Q>
0

> <i_rge_R1_i_epik_Tot_abs_Q>
0

> <s_rge_R1_s_lp_Force_Field>
OPLS_2005

> <r_rge_R1_r_lp_Energy>
10.1416895040246

> <b_rge_R1_b_lp_Chiralities_Consistent>
1

> <s_rge_R1_s_lp_Variant>
Untitled_Molecule_000036-2

> <r_rge_R1_r_lp_tautomer_probability>
1

> <r_rge_R1_r_m_Shape_Sim>
0.793957388991686

> <s_m_subgroup_title>
ReplaceWaterV2_9-out1

> <s_m_subgroupid>
ReplaceWaterV2_9-out1

> <b_m_subgroup_collapsed>
0

$$$$
Core,ligand-designer_replace-H2O_8
                    3D
 Schrodinger Suite 2020-1.
 23 24  0  0  1  0            999 V2000
   -1.9210    1.3912   -0.0009 C   0  0  0  0  0  0
   -2.6352    2.5459   -0.0016 N   0  0  0  0  0  0
   -1.9458    3.7143   -0.0040 C   0  0  0  0  0  0
   -0.5520    3.7713   -0.0057 C   0  0  0  0  0  0
    0.1641    2.5727   -0.0053 C   0  0  0  0  0  0
   -0.5237    1.3455   -0.0029 C   0  0  0  0  0  0
    0.0749    0.1009   -0.0028 O   0  0  0  0  0  0
    1.4972    0.0166   -0.0039 C   0  0  0  0  0  0
   -2.5338    4.6202   -0.0045 H   0  0  0  0  0  0
   -0.0379    4.7211   -0.0069 H   0  0  0  0  0  0
    1.2427    2.6147   -0.0069 H   0  0  0  0  0  0
    1.9013    0.4992   -0.8957 H   0  0  0  0  0  0
    1.9079    0.5294    0.8686 H   0  0  0  0  0  0
   -2.4976    0.4777    0.0008 H   0  0  0  0  0  0
    1.9042   -1.4670    0.0055 C   0  0  0  0  0  0
    3.3985   -1.7111    0.2546 C   0  0  0  0  0  0
    3.1049   -2.2907    1.5959 O   0  0  0  0  0  0
    1.6413   -2.1869    1.3352 C   0  0  0  0  0  0
    1.5008   -1.9721   -0.8731 H   0  0  0  0  0  0
    3.8633   -2.4812   -0.3630 H   0  0  0  0  0  0
    4.0222   -0.8243    0.3787 H   0  0  0  0  0  0
    1.1796   -1.5936    2.1263 H   0  0  0  0  0  0
    1.2290   -3.1937    1.2558 H   0  0  0  0  0  0
  1  2  1  0  0  0
  1  6  2  0  0  0
  1 14  1  0  0  0
  2  3  2  0  0  0
  3  4  1  0  0  0
  3  9  1  0  0  0
  4  5  2  0  0  0
  4 10  1  0  0  0
  5  6  1  0  0  0
  5 11  1  0  0  0
  6  7  1  0  0  0
  7  8  1  0  0  0
  8 12  1  0  0  0
  8 13  1  0  0  0
  8 15  1  0  0  0
 15 18  1  0  0  0
 15 16  1  0  0  0
 15 19  1  0  0  0
 16 17  1  0  0  0
 16 20  1  0  0  0
 16 21  1  0  0  0
 17 18  1  0  0  0
 18 22  1  0  0  0
 18 23  1  0  0  0
M  END
> <i_m_ct_stereo_status>
1

> <i_m_stars>
0

> <s_m_entry_id>
18516

> <s_m_entry_name>
Structure11785

> <s_pdb_PDB_TITLE>
P38 KINASE CRYSTAL STRUCTURE IN COMPLEX WITH SMALL MOLECULE INHIBITOR

> <s_pdb_PDB_ID>
1W7H

> <i_pdb_PDB_Model>
1

> <r_pdb_PDB_CRYST1_a>
45.771

> <r_pdb_PDB_CRYST1_b>
87.101

> <r_pdb_PDB_CRYST1_c>
126.337

> <r_pdb_PDB_CRYST1_alpha>
90

> <r_pdb_PDB_CRYST1_beta>
90

> <r_pdb_PDB_CRYST1_gamma>
90

> <s_pdb_PDB_CRYST1_Space_Group>
P 21 21 21

> <i_pdb_PDB_CRYST1_z>
4

> <s_pdb_PDB_CLASSIFICATION>
TRANSFERASE

> <s_pdb_PDB_DEPOSITION_DATE>
02-SEP-04

> <s_pdb_PDB_format_version>
3.0

> <r_pdb_PDB_RESOLUTION>
2.21

> <s_pdb_PDB_EXPDTA>
X-RAY DIFFRACTION

> <r_pdb_PDB_EXPDTA_TEMPERATURE>
100

> <r_pdb_PDB_EXPDTA_PH>
7

> <s_pdb_PDB_REMARK_350_Biomolecule_1_Transform_1_Chains>
A

> <s_pdb_PDB_REMARK_350_Biomolecule_1_Transform_1_Matrix_1>
1.000000 0.000000 0.000000   0.000000;0.000000 1.000000 0.000000   0.000000;0.000000 0.000000 1.000000   0.000000

> <s_m_Source_Path>
/scratch/alberto/systems/Trials

> <s_m_Source_File>
1w7h_prep.pdb

> <i_m_Source_File_Index>
1

> <s_m_source_file>
ReplaceWaterV2_9.maegz

> <i_m_source_file_index>
9

> <i_lp_mmshare_version>
49012

> <i_f3d_flags>
0

> <s_epik_input>
W2NIXTFbY0hdW2NIXW5bY0hdYzFPW0NIMl1bQ0hdMltDSDJdT1tDSDJdMg==

> <s_epik_cmdline>
J2VwaWtfcHl0aG9uJywgJy1waCcsICc3LjAnLCAnLXRuJywgJzgnLCAnLW1hJywgJzIwMCcsICctaW1hZScsICc8aW5maWxlLm1hZT4nLCAnLW9tYWUnLCAnPG91dGZpbGUubWFlPic=

> <r_epik_Ionization_Penalty>
  0.0024

> <r_epik_Ionization_Penalty_Charging>
  0.0000

> <r_epik_Ionization_Penalty_Neutral>
  0.0024

> <r_epik_State_Penalty>
  0.0017

> <r_epik_Charging_Adjusted_Penalty>
0.00169409820981085

> <i_epik_Tot_Q>
0

> <i_epik_Tot_abs_Q>
0

> <s_lp_Force_Field>
OPLS3e

> <r_lp_Energy>
15.36043

> <b_lp_Chiralities_Consistent>
1

> <s_lp_Variant>
Core,ligand-designer_replace-H2O_8-1

> <s_m_job_name>
ReplaceWaterV2_9

> <r_lp_tautomer_probability>
1

> <i_rge_num_r_groups>
1

> <r_rge_occupation_R1>
1

> <s_rge_R1>
ligand-designer_replace-H2O_8

> <s_rge_R1_s_m_title>
ligand-designer_replace-H2O_8

> <s_rge_R1_s_m_entry_id>
25677

> <s_rge_R1_s_m_entry_name>
ligand-designer_replace-H2O.smi-ligprep.10

> <s_rge_R1_s_m_smiles>
[*]C1COC1

> <s_rge_R1_s_m_Source_File>
ligand-designer_replace-H2O.maegz-dedup.maegz-names.maegz

> <i_rge_R1_i_m_Source_File_Index>
9

> <s_rge_R1_s_m_Source_Path>
/Users/konze/projects/pathfinder/r-groups/final-r-groups

> <s_rge_R1_s_canvas_Unique_SMILES_Stereo>
ClC1COC1

> <i_rge_R1_i_lp_mmshare_version>
42013

> <i_rge_R1_i_f3d_flags>
0

> <i_rge_R1_i_m_stars>
0

> <s_rge_R1_s_m_subgroup_title>
ligand-designer_replace-H2O

> <s_rge_R1_s_m_subgroupid>
ligand-designer_replace-H2O.smi-ligprep111

> <b_rge_R1_b_m_subgroup_collapsed>
1

> <s_rge_R1_s_epik_input>
Q2xbQ0hdMVtDSDJdT1tDSDJdMQ==

> <s_rge_R1_s_epik_cmdline>
J2VwaWtfcHl0aG9uJywgJy1waHQnLCAnMC43JywgJy1waCcsICc3LjAnLCAnLXRuJywgJzgnLCAnLW1hJywgJzIwMCcsICctaW1hZScsICc8aW5maWxlLm1hZT4nLCAnLW9tYWUnLCAnPG91dGZpbGUubWFlPic=

> <r_rge_R1_r_epik_Ionization_Penalty>
0

> <r_rge_R1_r_epik_Ionization_Penalty_Charging>
0

> <r_rge_R1_r_epik_Ionization_Penalty_Neutral>
0

> <r_rge_R1_r_epik_State_Penalty>
0

> <r_rge_R1_r_epik_Charging_Adjusted_Penalty>
0

> <i_rge_R1_i_epik_Tot_Q>
0

> <i_rge_R1_i_epik_Tot_abs_Q>
0

> <s_rge_R1_s_lp_Force_Field>
OPLS_2005

> <r_rge_R1_r_lp_Energy>
4.85861372005103

> <b_rge_R1_b_lp_Chiralities_Consistent>
1

> <s_rge_R1_s_lp_Variant>
Untitled_Molecule_000037-1

> <r_rge_R1_r_lp_tautomer_probability>
1

> <r_rge_R1_r_m_Shape_Sim>
0.866261362570171

> <s_m_subgroup_title>
ReplaceWaterV2_9-out1

> <s_m_subgroupid>
ReplaceWaterV2_9-out1

> <b_m_subgroup_collapsed>
0

$$$$
Core,ligand-designer_replace-H2O_9
                    3D
 Schrodinger Suite 2020-1.
 23 24  0  0  1  0            999 V2000
   -1.9148    1.3903    0.0016 C   0  0  0  0  0  0
   -2.6288    2.5451    0.0018 N   0  0  0  0  0  0
   -1.9393    3.7134   -0.0008 C   0  0  0  0  0  0
   -0.5455    3.7704   -0.0036 C   0  0  0  0  0  0
    0.1704    2.5716   -0.0042 C   0  0  0  0  0  0
   -0.5174    1.3446   -0.0020 C   0  0  0  0  0  0
    0.0807    0.0999   -0.0030 O   0  0  0  0  0  0
    1.5038    0.0143   -0.0225 C   0  0  0  0  0  0
   -2.5276    4.6192   -0.0003 H   0  0  0  0  0  0
   -0.0312    4.7202   -0.0052 H   0  0  0  0  0  0
    1.2491    2.6132   -0.0064 H   0  0  0  0  0  0
    1.9144    0.5238   -0.8962 H   0  0  0  0  0  0
    1.9053    0.5090    0.8645 H   0  0  0  0  0  0
   -2.4912    0.4768    0.0031 H   0  0  0  0  0  0
    1.6201   -2.1302   -1.2522 O   0  0  0  0  0  0
    1.9191   -1.4686   -0.0412 C   0  0  0  0  0  0
    3.1496   -1.8731    0.7301 C   0  0  0  0  0  0
    1.7656   -2.2358    1.2470 C   0  0  0  0  0  0
    1.8635   -3.0543   -1.1617 H   0  0  0  0  0  0
    3.7529   -2.7293    0.4272 H   0  0  0  0  0  0
    3.6981   -1.1544    1.3397 H   0  0  0  0  0  0
    1.4666   -1.7344    2.1683 H   0  0  0  0  0  0
    1.5501   -3.3048    1.2483 H   0  0  0  0  0  0
  1  2  1  0  0  0
  1  6  2  0  0  0
  1 14  1  0  0  0
  2  3  2  0  0  0
  3  4  1  0  0  0
  3  9  1  0  0  0
  4  5  2  0  0  0
  4 10  1  0  0  0
  5  6  1  0  0  0
  5 11  1  0  0  0
  6  7  1  0  0  0
  7  8  1  0  0  0
  8 12  1  0  0  0
  8 13  1  0  0  0
  8 16  1  0  0  0
 15 16  1  0  0  0
 15 19  1  0  0  0
 16 18  1  0  0  0
 16 17  1  0  0  0
 17 18  1  0  0  0
 17 20  1  0  0  0
 17 21  1  0  0  0
 18 22  1  0  0  0
 18 23  1  0  0  0
M  END
> <i_m_ct_stereo_status>
1

> <i_m_stars>
0

> <s_m_entry_id>
18517

> <s_m_entry_name>
Structure11785

> <s_pdb_PDB_TITLE>
P38 KINASE CRYSTAL STRUCTURE IN COMPLEX WITH SMALL MOLECULE INHIBITOR

> <s_pdb_PDB_ID>
1W7H

> <i_pdb_PDB_Model>
1

> <r_pdb_PDB_CRYST1_a>
45.771

> <r_pdb_PDB_CRYST1_b>
87.101

> <r_pdb_PDB_CRYST1_c>
126.337

> <r_pdb_PDB_CRYST1_alpha>
90

> <r_pdb_PDB_CRYST1_beta>
90

> <r_pdb_PDB_CRYST1_gamma>
90

> <s_pdb_PDB_CRYST1_Space_Group>
P 21 21 21

> <i_pdb_PDB_CRYST1_z>
4

> <s_pdb_PDB_CLASSIFICATION>
TRANSFERASE

> <s_pdb_PDB_DEPOSITION_DATE>
02-SEP-04

> <s_pdb_PDB_format_version>
3.0

> <r_pdb_PDB_RESOLUTION>
2.21

> <s_pdb_PDB_EXPDTA>
X-RAY DIFFRACTION

> <r_pdb_PDB_EXPDTA_TEMPERATURE>
100

> <r_pdb_PDB_EXPDTA_PH>
7

> <s_pdb_PDB_REMARK_350_Biomolecule_1_Transform_1_Chains>
A

> <s_pdb_PDB_REMARK_350_Biomolecule_1_Transform_1_Matrix_1>
1.000000 0.000000 0.000000   0.000000;0.000000 1.000000 0.000000   0.000000;0.000000 0.000000 1.000000   0.000000

> <s_m_Source_Path>
/scratch/alberto/systems/Trials

> <s_m_Source_File>
1w7h_prep.pdb

> <i_m_Source_File_Index>
1

> <s_m_source_file>
ReplaceWaterV2_9.maegz

> <i_m_source_file_index>
10

> <i_lp_mmshare_version>
49012

> <i_f3d_flags>
0

> <s_epik_input>
W2NIXTFbY0hdW2NIXW5bY0hdYzFPW0NIMl1DMihbT0hdKVtDSDJdW0NIMl0y

> <s_epik_cmdline>
J2VwaWtfcHl0aG9uJywgJy1waCcsICc3LjAnLCAnLXRuJywgJzgnLCAnLW1hJywgJzIwMCcsICctaW1hZScsICc8aW5maWxlLm1hZT4nLCAnLW9tYWUnLCAnPG91dGZpbGUubWFlPic=

> <r_epik_Ionization_Penalty>
  0.0119

> <r_epik_Ionization_Penalty_Charging>
  0.0000

> <r_epik_Ionization_Penalty_Neutral>
  0.0119

> <r_epik_State_Penalty>
  0.0091

> <r_epik_Charging_Adjusted_Penalty>
0.00914758136151884

> <i_epik_Tot_Q>
0

> <i_epik_Tot_abs_Q>
0

> <s_lp_Force_Field>
OPLS3e

> <r_lp_Energy>
29.370236

> <b_lp_Chiralities_Consistent>
1

> <s_lp_Variant>
Core,ligand-designer_replace-H2O_9-1

> <s_m_job_name>
ReplaceWaterV2_9

> <r_lp_tautomer_probability>
1

> <i_rge_num_r_groups>
1

> <r_rge_occupation_R1>
1

> <s_rge_R1>
ligand-designer_replace-H2O_9

> <s_rge_R1_s_m_title>
ligand-designer_replace-H2O_9

> <s_rge_R1_s_m_entry_id>
25678

> <s_rge_R1_s_m_entry_name>
ligand-designer_replace-H2O.smi-ligprep.11

> <s_rge_R1_s_m_smiles>
[*]C1(O)CC1

> <s_rge_R1_s_m_Source_File>
ligand-designer_replace-H2O.maegz-dedup.maegz-names.maegz

> <i_rge_R1_i_m_Source_File_Index>
10

> <s_rge_R1_s_m_Source_Path>
/Users/konze/projects/pathfinder/r-groups/final-r-groups

> <s_rge_R1_s_canvas_Unique_SMILES_Stereo>
OC1(Cl)CC1

> <i_rge_R1_i_lp_mmshare_version>
42013

> <i_rge_R1_i_f3d_flags>
0

> <i_rge_R1_i_m_stars>
0

> <s_rge_R1_s_m_subgroup_title>
ligand-designer_replace-H2O

> <s_rge_R1_s_m_subgroupid>
ligand-designer_replace-H2O.smi-ligprep111

> <b_rge_R1_b_m_subgroup_collapsed>
1

> <s_rge_R1_s_epik_input>
W09IXUMxKENsKVtDSDJdW0NIMl0x

> <s_rge_R1_s_epik_cmdline>
J2VwaWtfcHl0aG9uJywgJy1waHQnLCAnMC43JywgJy1waCcsICc3LjAnLCAnLXRuJywgJzgnLCAnLW1hJywgJzIwMCcsICctaW1hZScsICc8aW5maWxlLm1hZT4nLCAnLW9tYWUnLCAnPG91dGZpbGUubWFlPic=

> <r_rge_R1_r_epik_Ionization_Penalty>
0

> <r_rge_R1_r_epik_Ionization_Penalty_Charging>
0

> <r_rge_R1_r_epik_Ionization_Penalty_Neutral>
0

> <r_rge_R1_r_epik_State_Penalty>
0

> <r_rge_R1_r_epik_Charging_Adjusted_Penalty>
0

> <i_rge_R1_i_epik_Tot_Q>
0

> <i_rge_R1_i_epik_Tot_abs_Q>
0

> <s_rge_R1_s_lp_Force_Field>
OPLS_2005

> <r_rge_R1_r_lp_Energy>
9.29398174627083

> <b_rge_R1_b_lp_Chiralities_Consistent>
1

> <s_rge_R1_s_lp_Variant>
Untitled_Molecule_000039-1

> <r_rge_R1_r_lp_tautomer_probability>
1

> <r_rge_R1_r_m_Shape_Sim>
0.82442786831002

> <s_m_subgroup_title>
ReplaceWaterV2_9-out1

> <s_m_subgroupid>
ReplaceWaterV2_9-out1

> <b_m_subgroup_collapsed>
0

$$$$
Core,ligand-designer_replace-H2O_9
                    3D
 Schrodinger Suite 2020-1.
 24 25  0  0  1  0            999 V2000
    0.1918    2.5724    0.0049 C   0  0  0  0  0  0
   -0.4871    3.7374    0.0081 N   0  3  0  0  0  0
   -1.8327    3.8070    0.0062 C   0  0  0  0  0  0
   -2.5780    2.6264    0.0005 C   0  0  0  0  0  0
   -1.9113    1.3974   -0.0036 C   0  0  0  0  0  0
   -0.5113    1.3536   -0.0009 C   0  0  0  0  0  0
    0.0830    0.1076   -0.0045 O   0  0  0  0  0  0
    1.5062    0.0174    0.0140 C   0  0  0  0  0  0
   -2.2587    4.8000    0.0098 H   0  0  0  0  0  0
   -3.6579    2.6608   -0.0004 H   0  0  0  0  0  0
   -2.4807    0.4792   -0.0077 H   0  0  0  0  0  0
    1.9096    0.5081   -0.8742 H   0  0  0  0  0  0
    1.9198    0.5276    0.8860 H   0  0  0  0  0  0
    1.2673    2.6699    0.0074 H   0  0  0  0  0  0
    1.6082   -2.1223    1.2503 O   0  0  0  0  0  0
    1.9148   -1.4668    0.0381 C   0  0  0  0  0  0
    1.7627   -2.2377   -1.2481 C   0  0  0  0  0  0
    3.1465   -1.8794   -0.7267 C   0  0  0  0  0  0
    1.8627   -3.0447    1.1713 H   0  0  0  0  0  0
    1.5432   -3.3059   -1.2472 H   0  0  0  0  0  0
    1.4705   -1.7386   -2.1728 H   0  0  0  0  0  0
    3.7010   -1.1654   -1.3367 H   0  0  0  0  0  0
    3.7446   -2.7377   -0.4187 H   0  0  0  0  0  0
    0.0385    4.6005    0.0129 H   0  0  0  0  0  0
  1  2  1  0  0  0
  1  6  2  0  0  0
  1 14  1  0  0  0
  2  3  2  0  0  0
  2 24  1  0  0  0
  3  4  1  0  0  0
  3  9  1  0  0  0
  4  5  2  0  0  0
  4 10  1  0  0  0
  5  6  1  0  0  0
  5 11  1  0  0  0
  6  7  1  0  0  0
  7  8  1  0  0  0
  8 12  1  0  0  0
  8 13  1  0  0  0
  8 16  1  0  0  0
 15 16  1  0  0  0
 15 19  1  0  0  0
 16 18  1  0  0  0
 16 17  1  0  0  0
 17 18  1  0  0  0
 17 20  1  0  0  0
 17 21  1  0  0  0
 18 22  1  0  0  0
 18 23  1  0  0  0
M  CHG  1   2   1
M  END
> <i_m_ct_stereo_status>
1

> <i_m_stars>
0

> <s_m_entry_id>
18518

> <s_m_entry_name>
Structure11785

> <s_pdb_PDB_TITLE>
P38 KINASE CRYSTAL STRUCTURE IN COMPLEX WITH SMALL MOLECULE INHIBITOR

> <s_pdb_PDB_ID>
1W7H

> <i_pdb_PDB_Model>
1

> <r_pdb_PDB_CRYST1_a>
45.771

> <r_pdb_PDB_CRYST1_b>
87.101

> <r_pdb_PDB_CRYST1_c>
126.337

> <r_pdb_PDB_CRYST1_alpha>
90

> <r_pdb_PDB_CRYST1_beta>
90

> <r_pdb_PDB_CRYST1_gamma>
90

> <s_pdb_PDB_CRYST1_Space_Group>
P 21 21 21

> <i_pdb_PDB_CRYST1_z>
4

> <s_pdb_PDB_CLASSIFICATION>
TRANSFERASE

> <s_pdb_PDB_DEPOSITION_DATE>
02-SEP-04

> <s_pdb_PDB_format_version>
3.0

> <r_pdb_PDB_RESOLUTION>
2.21

> <s_pdb_PDB_EXPDTA>
X-RAY DIFFRACTION

> <r_pdb_PDB_EXPDTA_TEMPERATURE>
100

> <r_pdb_PDB_EXPDTA_PH>
7

> <s_pdb_PDB_REMARK_350_Biomolecule_1_Transform_1_Chains>
A

> <s_pdb_PDB_REMARK_350_Biomolecule_1_Transform_1_Matrix_1>
1.000000 0.000000 0.000000   0.000000;0.000000 1.000000 0.000000   0.000000;0.000000 0.000000 1.000000   0.000000

> <s_m_Source_Path>
/scratch/alberto/systems/Trials

> <s_m_Source_File>
1w7h_prep.pdb

> <i_m_Source_File_Index>
1

> <s_m_source_file>
ReplaceWaterV2_9.maegz

> <i_m_source_file_index>
10

> <i_lp_mmshare_version>
49012

> <i_f3d_flags>
0

> <s_epik_input>
W2NIXTFbY0hdW2NIXW5bY0hdYzFPW0NIMl1DMihbT0hdKVtDSDJdW0NIMl0y

> <s_epik_cmdline>
J2VwaWtfcHl0aG9uJywgJy1waCcsICc3LjAnLCAnLXRuJywgJzgnLCAnLW1hJywgJzIwMCcsICctaW1hZScsICc8aW5maWxlLm1hZT4nLCAnLW9tYWUnLCAnPG91dGZpbGUubWFlPic=

> <r_epik_Ionization_Penalty>
  2.3234

> <r_epik_Ionization_Penalty_Charging>
  2.3234

> <r_epik_Ionization_Penalty_Neutral>
  0.0000

> <r_epik_State_Penalty>
  2.4757

> <r_epik_Charging_Adjusted_Penalty>
4.79911076700045

> <i_epik_Tot_Q>
1

> <i_epik_Tot_abs_Q>
1

> <s_lp_Force_Field>
OPLS3e

> <r_lp_Energy>
33.041756

> <b_lp_Chiralities_Consistent>
1

> <s_lp_Variant>
Core,ligand-designer_replace-H2O_9-2

> <s_m_job_name>
ReplaceWaterV2_9

> <i_rge_num_r_groups>
1

> <r_rge_occupation_R1>
1

> <s_rge_R1>
ligand-designer_replace-H2O_9

> <s_rge_R1_s_m_title>
ligand-designer_replace-H2O_9

> <s_rge_R1_s_m_entry_id>
25678

> <s_rge_R1_s_m_entry_name>
ligand-designer_replace-H2O.smi-ligprep.11

> <s_rge_R1_s_m_smiles>
[*]C1(O)CC1

> <s_rge_R1_s_m_Source_File>
ligand-designer_replace-H2O.maegz-dedup.maegz-names.maegz

> <i_rge_R1_i_m_Source_File_Index>
10

> <s_rge_R1_s_m_Source_Path>
/Users/konze/projects/pathfinder/r-groups/final-r-groups

> <s_rge_R1_s_canvas_Unique_SMILES_Stereo>
OC1(Cl)CC1

> <i_rge_R1_i_lp_mmshare_version>
42013

> <i_rge_R1_i_f3d_flags>
0

> <i_rge_R1_i_m_stars>
0

> <s_rge_R1_s_m_subgroup_title>
ligand-designer_replace-H2O

> <s_rge_R1_s_m_subgroupid>
ligand-designer_replace-H2O.smi-ligprep111

> <b_rge_R1_b_m_subgroup_collapsed>
1

> <s_rge_R1_s_epik_input>
W09IXUMxKENsKVtDSDJdW0NIMl0x

> <s_rge_R1_s_epik_cmdline>
J2VwaWtfcHl0aG9uJywgJy1waHQnLCAnMC43JywgJy1waCcsICc3LjAnLCAnLXRuJywgJzgnLCAnLW1hJywgJzIwMCcsICctaW1hZScsICc8aW5maWxlLm1hZT4nLCAnLW9tYWUnLCAnPG91dGZpbGUubWFlPic=

> <r_rge_R1_r_epik_Ionization_Penalty>
0

> <r_rge_R1_r_epik_Ionization_Penalty_Charging>
0

> <r_rge_R1_r_epik_Ionization_Penalty_Neutral>
0

> <r_rge_R1_r_epik_State_Penalty>
0

> <r_rge_R1_r_epik_Charging_Adjusted_Penalty>
0

> <i_rge_R1_i_epik_Tot_Q>
0

> <i_rge_R1_i_epik_Tot_abs_Q>
0

> <s_rge_R1_s_lp_Force_Field>
OPLS_2005

> <r_rge_R1_r_lp_Energy>
9.29398174627083

> <b_rge_R1_b_lp_Chiralities_Consistent>
1

> <s_rge_R1_s_lp_Variant>
Untitled_Molecule_000039-1

> <r_rge_R1_r_lp_tautomer_probability>
1

> <r_rge_R1_r_m_Shape_Sim>
0.82442786831002

> <s_m_subgroup_title>
ReplaceWaterV2_9-out1

> <s_m_subgroupid>
ReplaceWaterV2_9-out1

> <b_m_subgroup_collapsed>
0

$$$$
Core,ligand-designer_replace-H2O_10
                    3D
 Schrodinger Suite 2020-1.
 22 22  0  0  1  0            999 V2000
   -1.8121    1.4207    0.5099 C   0  0  0  0  0  0
   -2.5652    2.5424    0.3753 N   0  0  0  0  0  0
   -1.9447    3.6724   -0.0472 C   0  0  0  0  0  0
   -0.5826    3.7228   -0.3438 C   0  0  0  0  0  0
    0.1746    2.5587   -0.1987 C   0  0  0  0  0  0
   -0.4416    1.3719    0.2377 C   0  0  0  0  0  0
    0.2037    0.1641    0.4170 O   0  0  0  0  0  0
    1.6057    0.0811    0.1478 C   0  0  0  0  0  0
   -2.5624    4.5527   -0.1478 H   0  0  0  0  0  0
   -0.1236    4.6415   -0.6782 H   0  0  0  0  0  0
    1.2288    2.5951   -0.4277 H   0  0  0  0  0  0
    1.8019    0.3287   -0.8971 H   0  0  0  0  0  0
    2.1530    0.7739    0.7898 H   0  0  0  0  0  0
   -2.3341    0.5373    0.8472 H   0  0  0  0  0  0
    1.5689   -3.6665    1.1197 C   0  0  0  0  0  0
    1.2465   -2.2751    0.8222 N   0  0  0  0  0  0
    2.1260   -1.3411    0.4145 C   0  0  0  0  0  0
    3.3237   -1.5720    0.2435 O   0  0  0  0  0  0
    1.1807   -3.9311    2.1033 H   0  0  0  0  0  0
    2.6409   -3.8682    1.1175 H   0  0  0  0  0  0
    1.0992   -4.3199    0.3844 H   0  0  0  0  0  0
    0.2787   -2.0070    0.9288 H   0  0  0  0  0  0
  1  2  1  0  0  0
  1  6  2  0  0  0
  1 14  1  0  0  0
  2  3  2  0  0  0
  3  4  1  0  0  0
  3  9  1  0  0  0
  4  5  2  0  0  0
  4 10  1  0  0  0
  5  6  1  0  0  0
  5 11  1  0  0  0
  6  7  1  0  0  0
  7  8  1  0  0  0
  8 12  1  0  0  0
  8 13  1  0  0  0
  8 17  1  0  0  0
 15 16  1  0  0  0
 15 19  1  0  0  0
 15 20  1  0  0  0
 15 21  1  0  0  0
 16 17  1  0  0  0
 16 22  1  0  0  0
 17 18  2  0  0  0
M  END
> <i_m_ct_stereo_status>
1

> <i_m_stars>
0

> <s_m_entry_id>
18519

> <s_m_entry_name>
Structure11785

> <s_pdb_PDB_TITLE>
P38 KINASE CRYSTAL STRUCTURE IN COMPLEX WITH SMALL MOLECULE INHIBITOR

> <s_pdb_PDB_ID>
1W7H

> <i_pdb_PDB_Model>
1

> <r_pdb_PDB_CRYST1_a>
45.771

> <r_pdb_PDB_CRYST1_b>
87.101

> <r_pdb_PDB_CRYST1_c>
126.337

> <r_pdb_PDB_CRYST1_alpha>
90

> <r_pdb_PDB_CRYST1_beta>
90

> <r_pdb_PDB_CRYST1_gamma>
90

> <s_pdb_PDB_CRYST1_Space_Group>
P 21 21 21

> <i_pdb_PDB_CRYST1_z>
4

> <s_pdb_PDB_CLASSIFICATION>
TRANSFERASE

> <s_pdb_PDB_DEPOSITION_DATE>
02-SEP-04

> <s_pdb_PDB_format_version>
3.0

> <r_pdb_PDB_RESOLUTION>
2.21

> <s_pdb_PDB_EXPDTA>
X-RAY DIFFRACTION

> <r_pdb_PDB_EXPDTA_TEMPERATURE>
100

> <r_pdb_PDB_EXPDTA_PH>
7

> <s_pdb_PDB_REMARK_350_Biomolecule_1_Transform_1_Chains>
A

> <s_pdb_PDB_REMARK_350_Biomolecule_1_Transform_1_Matrix_1>
1.000000 0.000000 0.000000   0.000000;0.000000 1.000000 0.000000   0.000000;0.000000 0.000000 1.000000   0.000000

> <s_m_Source_Path>
/scratch/alberto/systems/Trials

> <s_m_Source_File>
1w7h_prep.pdb

> <i_m_Source_File_Index>
1

> <s_m_source_file>
ReplaceWaterV2_9.maegz

> <i_m_source_file_index>
11

> <i_lp_mmshare_version>
49012

> <i_f3d_flags>
0

> <s_epik_input>
W2NIXTFbY0hdW2NIXW5bY0hdYzFPW0NIMl1DKD1PKVtOSF1bQ0gzXQ==

> <s_epik_cmdline>
J2VwaWtfcHl0aG9uJywgJy1waCcsICc3LjAnLCAnLXRuJywgJzgnLCAnLW1hJywgJzIwMCcsICctaW1hZScsICc8aW5maWxlLm1hZT4nLCAnLW9tYWUnLCAnPG91dGZpbGUubWFlPic=

> <r_epik_Ionization_Penalty>
  0.0021

> <r_epik_Ionization_Penalty_Charging>
  0.0000

> <r_epik_Ionization_Penalty_Neutral>
  0.0021

> <r_epik_State_Penalty>
  0.0014

> <r_epik_Charging_Adjusted_Penalty>
0.00143266271809541

> <i_epik_Tot_Q>
0

> <i_epik_Tot_abs_Q>
0

> <s_lp_Force_Field>
OPLS3e

> <r_lp_Energy>
15.86027

> <b_lp_Chiralities_Consistent>
1

> <s_lp_Variant>
Core,ligand-designer_replace-H2O_10-1

> <s_m_job_name>
ReplaceWaterV2_9

> <r_lp_tautomer_probability>
1

> <i_rge_num_r_groups>
1

> <r_rge_occupation_R1>
1

> <s_rge_R1>
ligand-designer_replace-H2O_10

> <s_rge_R1_s_m_title>
ligand-designer_replace-H2O_10

> <s_rge_R1_s_m_entry_id>
25679

> <s_rge_R1_s_m_entry_name>
ligand-designer_replace-H2O.smi-ligprep.12

> <s_rge_R1_s_m_smiles>
[*]C(=O)NC

> <s_rge_R1_s_m_Source_File>
ligand-designer_replace-H2O.maegz-dedup.maegz-names.maegz

> <i_rge_R1_i_m_Source_File_Index>
11

> <s_rge_R1_s_m_Source_Path>
/Users/konze/projects/pathfinder/r-groups/final-r-groups

> <s_rge_R1_s_canvas_Unique_SMILES_Stereo>
O=C(Cl)NC

> <i_rge_R1_i_lp_mmshare_version>
42013

> <i_rge_R1_i_f3d_flags>
0

> <i_rge_R1_i_m_stars>
0

> <s_rge_R1_s_m_subgroup_title>
ligand-designer_replace-H2O

> <s_rge_R1_s_m_subgroupid>
ligand-designer_replace-H2O.smi-ligprep111

> <b_rge_R1_b_m_subgroup_collapsed>
1

> <s_rge_R1_s_epik_input>
W0NIM11bTkhdQyg9TylDbA==

> <s_rge_R1_s_epik_cmdline>
J2VwaWtfcHl0aG9uJywgJy1waHQnLCAnMC43JywgJy1waCcsICc3LjAnLCAnLXRuJywgJzgnLCAnLW1hJywgJzIwMCcsICctaW1hZScsICc8aW5maWxlLm1hZT4nLCAnLW9tYWUnLCAnPG91dGZpbGUubWFlPic=

> <r_rge_R1_r_epik_Ionization_Penalty>
0.0003

> <r_rge_R1_r_epik_Ionization_Penalty_Charging>
0

> <r_rge_R1_r_epik_Ionization_Penalty_Neutral>
0.0003

> <r_rge_R1_r_epik_State_Penalty>
0

> <r_rge_R1_r_epik_Charging_Adjusted_Penalty>
0

> <i_rge_R1_i_epik_Tot_Q>
0

> <i_rge_R1_i_epik_Tot_abs_Q>
0

> <s_rge_R1_s_lp_Force_Field>
OPLS_2005

> <r_rge_R1_r_lp_Energy>
0.272944654980247

> <b_rge_R1_b_lp_Chiralities_Consistent>
1

> <s_rge_R1_s_lp_Variant>
Untitled_Molecule_000044-1

> <r_rge_R1_r_lp_tautomer_probability>
1

> <r_rge_R1_r_m_Shape_Sim>
0.361729491167857

> <s_m_subgroup_title>
ReplaceWaterV2_9-out1

> <s_m_subgroupid>
ReplaceWaterV2_9-out1

> <b_m_subgroup_collapsed>
0

$$$$
Core,ligand-designer_replace-H2O_11
                    3D
 Schrodinger Suite 2020-1.
 22 22  0  0  1  0            999 V2000
   -1.8546    1.3440   -0.1257 C   0  0  0  0  0  0
   -2.6029    2.4758   -0.0757 N   0  0  0  0  0  0
   -1.9494    3.6601    0.0284 C   0  0  0  0  0  0
   -0.5590    3.7560    0.0852 C   0  0  0  0  0  0
    0.1925    2.5805    0.0328 C   0  0  0  0  0  0
   -0.4575    1.3374   -0.0738 C   0  0  0  0  0  0
    0.1791    0.1134   -0.1421 O   0  0  0  0  0  0
    1.5691    0.0548   -0.0224 C   0  0  0  0  0  0
   -2.5640    4.5473    0.0642 H   0  0  0  0  0  0
   -0.0743    4.7179    0.1656 H   0  0  0  0  0  0
    1.2690    2.6512    0.0712 H   0  0  0  0  0  0
    2.0133    0.5258   -0.9037 H   0  0  0  0  0  0
    1.9124    0.5527    0.8863 H   0  0  0  0  0  0
   -2.4021    0.4168   -0.2111 H   0  0  0  0  0  0
    2.4754   -3.5858   -0.7091 C   0  0  0  0  0  0
    2.0469   -2.1530   -1.0096 C   0  0  0  0  0  0
    1.8178   -1.8186   -2.1722 O   0  0  0  0  0  0
    1.9438   -1.3252    0.0461 N   0  0  0  0  0  0
    2.5936   -3.7548    0.3619 H   0  0  0  0  0  0
    3.4261   -3.8032   -1.1964 H   0  0  0  0  0  0
    1.7302   -4.2872   -1.0846 H   0  0  0  0  0  0
    2.1682   -1.6881    0.9610 H   0  0  0  0  0  0
  1  2  1  0  0  0
  1  6  2  0  0  0
  1 14  1  0  0  0
  2  3  2  0  0  0
  3  4  1  0  0  0
  3  9  1  0  0  0
  4  5  2  0  0  0
  4 10  1  0  0  0
  5  6  1  0  0  0
  5 11  1  0  0  0
  6  7  1  0  0  0
  7  8  1  0  0  0
  8 12  1  0  0  0
  8 13  1  0  0  0
  8 18  1  0  0  0
 15 16  1  0  0  0
 15 19  1  0  0  0
 15 20  1  0  0  0
 15 21  1  0  0  0
 16 17  2  0  0  0
 16 18  1  0  0  0
 18 22  1  0  0  0
M  END
> <i_m_ct_stereo_status>
1

> <i_m_stars>
0

> <s_m_entry_id>
18520

> <s_m_entry_name>
Structure11785

> <s_pdb_PDB_TITLE>
P38 KINASE CRYSTAL STRUCTURE IN COMPLEX WITH SMALL MOLECULE INHIBITOR

> <s_pdb_PDB_ID>
1W7H

> <i_pdb_PDB_Model>
1

> <r_pdb_PDB_CRYST1_a>
45.771

> <r_pdb_PDB_CRYST1_b>
87.101

> <r_pdb_PDB_CRYST1_c>
126.337

> <r_pdb_PDB_CRYST1_alpha>
90

> <r_pdb_PDB_CRYST1_beta>
90

> <r_pdb_PDB_CRYST1_gamma>
90

> <s_pdb_PDB_CRYST1_Space_Group>
P 21 21 21

> <i_pdb_PDB_CRYST1_z>
4

> <s_pdb_PDB_CLASSIFICATION>
TRANSFERASE

> <s_pdb_PDB_DEPOSITION_DATE>
02-SEP-04

> <s_pdb_PDB_format_version>
3.0

> <r_pdb_PDB_RESOLUTION>
2.21

> <s_pdb_PDB_EXPDTA>
X-RAY DIFFRACTION

> <r_pdb_PDB_EXPDTA_TEMPERATURE>
100

> <r_pdb_PDB_EXPDTA_PH>
7

> <s_pdb_PDB_REMARK_350_Biomolecule_1_Transform_1_Chains>
A

> <s_pdb_PDB_REMARK_350_Biomolecule_1_Transform_1_Matrix_1>
1.000000 0.000000 0.000000   0.000000;0.000000 1.000000 0.000000   0.000000;0.000000 0.000000 1.000000   0.000000

> <s_m_Source_Path>
/scratch/alberto/systems/Trials

> <s_m_Source_File>
1w7h_prep.pdb

> <i_m_Source_File_Index>
1

> <s_m_source_file>
ReplaceWaterV2_9.maegz

> <i_m_source_file_index>
12

> <i_lp_mmshare_version>
49012

> <i_f3d_flags>
0

> <s_epik_input>
W2NIXTFbY0hdW2NIXW5bY0hdYzFPW0NIMl1bTkhdQyg9TylbQ0gzXQ==

> <s_epik_cmdline>
J2VwaWtfcHl0aG9uJywgJy1waCcsICc3LjAnLCAnLXRuJywgJzgnLCAnLW1hJywgJzIwMCcsICctaW1hZScsICc8aW5maWxlLm1hZT4nLCAnLW9tYWUnLCAnPG91dGZpbGUubWFlPic=

> <r_epik_Ionization_Penalty>
  0.0030

> <r_epik_Ionization_Penalty_Charging>
  0.0000

> <r_epik_Ionization_Penalty_Neutral>
  0.0030

> <r_epik_State_Penalty>
  0.0021

> <r_epik_Charging_Adjusted_Penalty>
0.0020961863633629

> <i_epik_Tot_Q>
0

> <i_epik_Tot_abs_Q>
0

> <s_lp_Force_Field>
OPLS3e

> <r_lp_Energy>
17.24655

> <b_lp_Chiralities_Consistent>
1

> <s_lp_Variant>
Core,ligand-designer_replace-H2O_11-1

> <s_m_job_name>
ReplaceWaterV2_9

> <r_lp_tautomer_probability>
1

> <s_epik_Chemistry_Notes>
This compound contains an acetal/aminal-like group ( X-CH(R)-Y where X, Y are N, S, or O) that may be acid/base labile, releasing an aldehyde.

> <i_rge_num_r_groups>
1

> <r_rge_occupation_R1>
1

> <s_rge_R1>
ligand-designer_replace-H2O_11

> <s_rge_R1_s_m_title>
ligand-designer_replace-H2O_11

> <s_rge_R1_s_m_entry_id>
25680

> <s_rge_R1_s_m_entry_name>
ligand-designer_replace-H2O.smi-ligprep.13

> <s_rge_R1_s_m_smiles>
[*]NC(=O)C

> <s_rge_R1_s_m_Source_File>
ligand-designer_replace-H2O.maegz-dedup.maegz-names.maegz

> <i_rge_R1_i_m_Source_File_Index>
12

> <s_rge_R1_s_m_Source_Path>
/Users/konze/projects/pathfinder/r-groups/final-r-groups

> <s_rge_R1_s_canvas_Unique_SMILES_Stereo>
CC(=O)NCl

> <i_rge_R1_i_lp_mmshare_version>
42013

> <i_rge_R1_i_f3d_flags>
0

> <i_rge_R1_i_m_stars>
0

> <s_rge_R1_s_m_subgroup_title>
ligand-designer_replace-H2O

> <s_rge_R1_s_m_subgroupid>
ligand-designer_replace-H2O.smi-ligprep111

> <b_rge_R1_b_m_subgroup_collapsed>
1

> <s_rge_R1_s_epik_input>
W0NIM11DKD1PKVtOSF1DbA==

> <s_rge_R1_s_epik_cmdline>
J2VwaWtfcHl0aG9uJywgJy1waHQnLCAnMC43JywgJy1waCcsICc3LjAnLCAnLXRuJywgJzgnLCAnLW1hJywgJzIwMCcsICctaW1hZScsICc8aW5maWxlLm1hZT4nLCAnLW9tYWUnLCAnPG91dGZpbGUubWFlPic=

> <r_rge_R1_r_epik_Ionization_Penalty>
0

> <r_rge_R1_r_epik_Ionization_Penalty_Charging>
0

> <r_rge_R1_r_epik_Ionization_Penalty_Neutral>
0

> <r_rge_R1_r_epik_State_Penalty>
0

> <r_rge_R1_r_epik_Charging_Adjusted_Penalty>
0

> <i_rge_R1_i_epik_Tot_Q>
0

> <i_rge_R1_i_epik_Tot_abs_Q>
0

> <s_rge_R1_s_lp_Force_Field>
OPLS_2005

> <r_rge_R1_r_lp_Energy>
-0.636944532346769

> <b_rge_R1_b_lp_Chiralities_Consistent>
1

> <s_rge_R1_s_lp_Variant>
Untitled_Molecule_000045-1

> <r_rge_R1_r_lp_tautomer_probability>
1

> <r_rge_R1_r_m_Shape_Sim>
0.36000744244999

> <s_m_subgroup_title>
ReplaceWaterV2_9-out1

> <s_m_subgroupid>
ReplaceWaterV2_9-out1

> <b_m_subgroup_collapsed>
0

$$$$
Core,ligand-designer_replace-H2O_12
                    3D
 Schrodinger Suite 2020-1.
 22 22  0  0  1  0            999 V2000
   -1.9615    1.4423    0.1846 C   0  0  0  0  0  0
   -2.7476    2.5288   -0.0281 N   0  0  0  0  0  0
   -2.1360    3.6989   -0.3397 C   0  0  0  0  0  0
   -0.7509    3.8244   -0.4474 C   0  0  0  0  0  0
    0.0399    2.6957   -0.2244 C   0  0  0  0  0  0
   -0.5660    1.4682    0.0999 C   0  0  0  0  0  0
    0.1111    0.2886    0.3399 O   0  0  0  0  0  0
    1.5330    0.2772    0.2510 C   0  0  0  0  0  0
   -2.7801    4.5500   -0.5055 H   0  0  0  0  0  0
   -0.2997    4.7731   -0.6979 H   0  0  0  0  0  0
    1.1120    2.7910   -0.3070 H   0  0  0  0  0  0
    1.8551    0.5858   -0.7460 H   0  0  0  0  0  0
    1.9680    0.9852    0.9595 H   0  0  0  0  0  0
   -2.4770    0.5252    0.4293 H   0  0  0  0  0  0
    4.0426   -2.5418    0.6887 N   0  0  0  0  0  0
    3.5658   -1.3174    0.4539 C   0  0  0  0  0  0
    4.3076   -0.3768    0.1747 O   0  0  0  0  0  0
    2.0432   -1.1455    0.5511 C   0  0  0  0  0  0
    5.0360   -2.7149    0.6394 H   0  0  0  0  0  0
    3.4163   -3.3004    0.9147 H   0  0  0  0  0  0
    1.7065   -1.4451    1.5445 H   0  0  0  0  0  0
    1.5638   -1.8449   -0.1354 H   0  0  0  0  0  0
  1  2  1  0  0  0
  1  6  2  0  0  0
  1 14  1  0  0  0
  2  3  2  0  0  0
  3  4  1  0  0  0
  3  9  1  0  0  0
  4  5  2  0  0  0
  4 10  1  0  0  0
  5  6  1  0  0  0
  5 11  1  0  0  0
  6  7  1  0  0  0
  7  8  1  0  0  0
  8 12  1  0  0  0
  8 13  1  0  0  0
  8 18  1  0  0  0
 15 16  1  0  0  0
 15 19  1  0  0  0
 15 20  1  0  0  0
 16 17  2  0  0  0
 16 18  1  0  0  0
 18 21  1  0  0  0
 18 22  1  0  0  0
M  END
> <i_m_ct_stereo_status>
1

> <i_m_stars>
0

> <s_m_entry_id>
18521

> <s_m_entry_name>
Structure11785

> <s_pdb_PDB_TITLE>
P38 KINASE CRYSTAL STRUCTURE IN COMPLEX WITH SMALL MOLECULE INHIBITOR

> <s_pdb_PDB_ID>
1W7H

> <i_pdb_PDB_Model>
1

> <r_pdb_PDB_CRYST1_a>
45.771

> <r_pdb_PDB_CRYST1_b>
87.101

> <r_pdb_PDB_CRYST1_c>
126.337

> <r_pdb_PDB_CRYST1_alpha>
90

> <r_pdb_PDB_CRYST1_beta>
90

> <r_pdb_PDB_CRYST1_gamma>
90

> <s_pdb_PDB_CRYST1_Space_Group>
P 21 21 21

> <i_pdb_PDB_CRYST1_z>
4

> <s_pdb_PDB_CLASSIFICATION>
TRANSFERASE

> <s_pdb_PDB_DEPOSITION_DATE>
02-SEP-04

> <s_pdb_PDB_format_version>
3.0

> <r_pdb_PDB_RESOLUTION>
2.21

> <s_pdb_PDB_EXPDTA>
X-RAY DIFFRACTION

> <r_pdb_PDB_EXPDTA_TEMPERATURE>
100

> <r_pdb_PDB_EXPDTA_PH>
7

> <s_pdb_PDB_REMARK_350_Biomolecule_1_Transform_1_Chains>
A

> <s_pdb_PDB_REMARK_350_Biomolecule_1_Transform_1_Matrix_1>
1.000000 0.000000 0.000000   0.000000;0.000000 1.000000 0.000000   0.000000;0.000000 0.000000 1.000000   0.000000

> <s_m_Source_Path>
/scratch/alberto/systems/Trials

> <s_m_Source_File>
1w7h_prep.pdb

> <i_m_Source_File_Index>
1

> <s_m_source_file>
ReplaceWaterV2_9.maegz

> <i_m_source_file_index>
13

> <i_lp_mmshare_version>
49012

> <i_f3d_flags>
0

> <s_epik_input>
W2NIXTFbY0hdW2NIXW5bY0hdYzFPW0NIMl1bQ0gyXUMoPU8pW05IMl0=

> <s_epik_cmdline>
J2VwaWtfcHl0aG9uJywgJy1waCcsICc3LjAnLCAnLXRuJywgJzgnLCAnLW1hJywgJzIwMCcsICctaW1hZScsICc8aW5maWxlLm1hZT4nLCAnLW9tYWUnLCAnPG91dGZpbGUubWFlPic=

> <r_epik_Ionization_Penalty>
  0.0013

> <r_epik_Ionization_Penalty_Charging>
  0.0000

> <r_epik_Ionization_Penalty_Neutral>
  0.0013

> <r_epik_State_Penalty>
  0.0008

> <r_epik_Charging_Adjusted_Penalty>
0.000848845495071343

> <i_epik_Tot_Q>
0

> <i_epik_Tot_abs_Q>
0

> <s_lp_Force_Field>
OPLS3e

> <r_lp_Energy>
10.880413

> <b_lp_Chiralities_Consistent>
1

> <s_lp_Variant>
Core,ligand-designer_replace-H2O_12-1

> <s_m_job_name>
ReplaceWaterV2_9

> <r_lp_tautomer_probability>
1

> <i_rge_num_r_groups>
1

> <r_rge_occupation_R1>
1

> <s_rge_R1>
ligand-designer_replace-H2O_12

> <s_rge_R1_s_m_title>
ligand-designer_replace-H2O_12

> <s_rge_R1_s_m_entry_id>
25681

> <s_rge_R1_s_m_entry_name>
ligand-designer_replace-H2O.smi-ligprep.14

> <s_rge_R1_s_m_smiles>
[*]CC(=O)N

> <s_rge_R1_s_m_Source_File>
ligand-designer_replace-H2O.maegz-dedup.maegz-names.maegz

> <i_rge_R1_i_m_Source_File_Index>
13

> <s_rge_R1_s_m_Source_Path>
/Users/konze/projects/pathfinder/r-groups/final-r-groups

> <s_rge_R1_s_canvas_Unique_SMILES_Stereo>
NC(=O)CCl

> <i_rge_R1_i_lp_mmshare_version>
42013

> <i_rge_R1_i_f3d_flags>
0

> <i_rge_R1_i_m_stars>
0

> <s_rge_R1_s_m_subgroup_title>
ligand-designer_replace-H2O

> <s_rge_R1_s_m_subgroupid>
ligand-designer_replace-H2O.smi-ligprep111

> <b_rge_R1_b_m_subgroup_collapsed>
1

> <s_rge_R1_s_epik_input>
W05IMl1DKD1PKVtDSDJdQ2w=

> <s_rge_R1_s_epik_cmdline>
J2VwaWtfcHl0aG9uJywgJy1waHQnLCAnMC43JywgJy1waCcsICc3LjAnLCAnLXRuJywgJzgnLCAnLW1hJywgJzIwMCcsICctaW1hZScsICc8aW5maWxlLm1hZT4nLCAnLW9tYWUnLCAnPG91dGZpbGUubWFlPic=

> <r_rge_R1_r_epik_Ionization_Penalty>
0

> <r_rge_R1_r_epik_Ionization_Penalty_Charging>
0

> <r_rge_R1_r_epik_Ionization_Penalty_Neutral>
0

> <r_rge_R1_r_epik_State_Penalty>
0

> <r_rge_R1_r_epik_Charging_Adjusted_Penalty>
0

> <i_rge_R1_i_epik_Tot_Q>
0

> <i_rge_R1_i_epik_Tot_abs_Q>
0

> <s_rge_R1_s_lp_Force_Field>
OPLS_2005

> <r_rge_R1_r_lp_Energy>
-1.71243595036676

> <b_rge_R1_b_lp_Chiralities_Consistent>
1

> <s_rge_R1_s_lp_Variant>
Untitled_Molecule_000046-1

> <r_rge_R1_r_lp_tautomer_probability>
1

> <r_rge_R1_r_m_Shape_Sim>
0.333613773183692

> <s_m_subgroup_title>
ReplaceWaterV2_9-out1

> <s_m_subgroupid>
ReplaceWaterV2_9-out1

> <b_m_subgroup_collapsed>
0

$$$$
Core,ligand-designer_replace-H2O_13
                    3D
 Schrodinger Suite 2020-1.
 21 21  0  0  1  0            999 V2000
   -1.8537    1.3385   -0.1225 C   0  0  0  0  0  0
   -2.5903    2.4782   -0.0777 N   0  0  0  0  0  0
   -1.9249    3.6561    0.0237 C   0  0  0  0  0  0
   -0.5336    3.7377    0.0825 C   0  0  0  0  0  0
    0.2059    2.5542    0.0357 C   0  0  0  0  0  0
   -0.4567    1.3175   -0.0680 C   0  0  0  0  0  0
    0.1674    0.0867   -0.1284 O   0  0  0  0  0  0
    1.5581    0.0164   -0.0218 C   0  0  0  0  0  0
   -2.5306    4.5499    0.0565 H   0  0  0  0  0  0
   -0.0392    4.6948    0.1612 H   0  0  0  0  0  0
    1.2830    2.6136    0.0776 H   0  0  0  0  0  0
    2.0001    0.5003   -0.8973 H   0  0  0  0  0  0
    1.9109    0.4949    0.8936 H   0  0  0  0  0  0
   -2.4113    0.4171   -0.2056 H   0  0  0  0  0  0
    2.3964   -3.4065   -0.7329 N   0  0  0  0  0  0
    2.0141   -2.1712   -1.0555 C   0  0  0  0  0  0
    1.7759   -1.8315   -2.2135 O   0  0  0  0  0  0
    1.9244   -1.3669    0.0169 N   0  0  0  0  0  0
    2.4976   -4.1061   -1.4535 H   0  0  0  0  0  0
    2.5818   -3.6514    0.2284 H   0  0  0  0  0  0
    2.1554   -1.7489    0.9221 H   0  0  0  0  0  0
  1  2  1  0  0  0
  1  6  2  0  0  0
  1 14  1  0  0  0
  2  3  2  0  0  0
  3  4  1  0  0  0
  3  9  1  0  0  0
  4  5  2  0  0  0
  4 10  1  0  0  0
  5  6  1  0  0  0
  5 11  1  0  0  0
  6  7  1  0  0  0
  7  8  1  0  0  0
  8 12  1  0  0  0
  8 13  1  0  0  0
  8 18  1  0  0  0
 15 16  1  0  0  0
 15 19  1  0  0  0
 15 20  1  0  0  0
 16 17  2  0  0  0
 16 18  1  0  0  0
 18 21  1  0  0  0
M  END
> <i_m_ct_stereo_status>
1

> <i_m_stars>
0

> <s_m_entry_id>
18522

> <s_m_entry_name>
Structure11785

> <s_pdb_PDB_TITLE>
P38 KINASE CRYSTAL STRUCTURE IN COMPLEX WITH SMALL MOLECULE INHIBITOR

> <s_pdb_PDB_ID>
1W7H

> <i_pdb_PDB_Model>
1

> <r_pdb_PDB_CRYST1_a>
45.771

> <r_pdb_PDB_CRYST1_b>
87.101

> <r_pdb_PDB_CRYST1_c>
126.337

> <r_pdb_PDB_CRYST1_alpha>
90

> <r_pdb_PDB_CRYST1_beta>
90

> <r_pdb_PDB_CRYST1_gamma>
90

> <s_pdb_PDB_CRYST1_Space_Group>
P 21 21 21

> <i_pdb_PDB_CRYST1_z>
4

> <s_pdb_PDB_CLASSIFICATION>
TRANSFERASE

> <s_pdb_PDB_DEPOSITION_DATE>
02-SEP-04

> <s_pdb_PDB_format_version>
3.0

> <r_pdb_PDB_RESOLUTION>
2.21

> <s_pdb_PDB_EXPDTA>
X-RAY DIFFRACTION

> <r_pdb_PDB_EXPDTA_TEMPERATURE>
100

> <r_pdb_PDB_EXPDTA_PH>
7

> <s_pdb_PDB_REMARK_350_Biomolecule_1_Transform_1_Chains>
A

> <s_pdb_PDB_REMARK_350_Biomolecule_1_Transform_1_Matrix_1>
1.000000 0.000000 0.000000   0.000000;0.000000 1.000000 0.000000   0.000000;0.000000 0.000000 1.000000   0.000000

> <s_m_Source_Path>
/scratch/alberto/systems/Trials

> <s_m_Source_File>
1w7h_prep.pdb

> <i_m_Source_File_Index>
1

> <s_m_source_file>
ReplaceWaterV2_9.maegz

> <i_m_source_file_index>
14

> <i_lp_mmshare_version>
49012

> <i_f3d_flags>
0

> <s_epik_input>
W2NIXTFbY0hdW2NIXW5bY0hdYzFPW0NIMl1bTkhdQyg9TylbTkgyXQ==

> <s_epik_cmdline>
J2VwaWtfcHl0aG9uJywgJy1waCcsICc3LjAnLCAnLXRuJywgJzgnLCAnLW1hJywgJzIwMCcsICctaW1hZScsICc8aW5maWxlLm1hZT4nLCAnLW9tYWUnLCAnPG91dGZpbGUubWFlPic=

> <r_epik_Ionization_Penalty>
  0.0038

> <r_epik_Ionization_Penalty_Charging>
  0.0000

> <r_epik_Ionization_Penalty_Neutral>
  0.0038

> <r_epik_State_Penalty>
  0.0027

> <r_epik_Charging_Adjusted_Penalty>
0.00268637902707873

> <i_epik_Tot_Q>
0

> <i_epik_Tot_abs_Q>
0

> <s_lp_Force_Field>
OPLS3e

> <r_lp_Energy>
14.931141

> <b_lp_Chiralities_Consistent>
1

> <s_lp_Variant>
Core,ligand-designer_replace-H2O_13-1

> <s_m_job_name>
ReplaceWaterV2_9

> <r_lp_tautomer_probability>
1

> <s_epik_Chemistry_Notes>
This compound contains an acetal/aminal-like group ( X-CH(R)-Y where X, Y are N, S, or O) that may be acid/base labile, releasing an aldehyde.

> <i_rge_num_r_groups>
1

> <r_rge_occupation_R1>
1

> <s_rge_R1>
ligand-designer_replace-H2O_13

> <s_rge_R1_s_m_title>
ligand-designer_replace-H2O_13

> <s_rge_R1_s_m_entry_id>
25682

> <s_rge_R1_s_m_entry_name>
ligand-designer_replace-H2O.smi-ligprep.17

> <s_rge_R1_s_m_smiles>
[*]NC(=O)N

> <s_rge_R1_s_m_Source_File>
ligand-designer_replace-H2O.maegz-dedup.maegz-names.maegz

> <i_rge_R1_i_m_Source_File_Index>
14

> <s_rge_R1_s_m_Source_Path>
/Users/konze/projects/pathfinder/r-groups/final-r-groups

> <s_rge_R1_s_canvas_Unique_SMILES_Stereo>
NC(=O)NCl

> <i_rge_R1_i_lp_mmshare_version>
42013

> <i_rge_R1_i_f3d_flags>
0

> <i_rge_R1_i_m_stars>
0

> <s_rge_R1_s_m_subgroup_title>
ligand-designer_replace-H2O

> <s_rge_R1_s_m_subgroupid>
ligand-designer_replace-H2O.smi-ligprep111

> <b_rge_R1_b_m_subgroup_collapsed>
1

> <s_rge_R1_s_epik_input>
W05IMl1DKD1PKVtOSF1DbA==

> <s_rge_R1_s_epik_cmdline>
J2VwaWtfcHl0aG9uJywgJy1waHQnLCAnMC43JywgJy1waCcsICc3LjAnLCAnLXRuJywgJzgnLCAnLW1hJywgJzIwMCcsICctaW1hZScsICc8aW5maWxlLm1hZT4nLCAnLW9tYWUnLCAnPG91dGZpbGUubWFlPic=

> <r_rge_R1_r_epik_Ionization_Penalty>
0.0001

> <r_rge_R1_r_epik_Ionization_Penalty_Charging>
0

> <r_rge_R1_r_epik_Ionization_Penalty_Neutral>
0.0001

> <r_rge_R1_r_epik_State_Penalty>
0

> <r_rge_R1_r_epik_Charging_Adjusted_Penalty>
0

> <i_rge_R1_i_epik_Tot_Q>
0

> <i_rge_R1_i_epik_Tot_abs_Q>
0

> <s_rge_R1_s_lp_Force_Field>
OPLS_2005

> <r_rge_R1_r_lp_Energy>
-4.405335971576

> <b_rge_R1_b_lp_Chiralities_Consistent>
1

> <s_rge_R1_s_lp_Variant>
Untitled_Molecule_000062-1

> <r_rge_R1_r_lp_tautomer_probability>
1

> <r_rge_R1_r_m_Shape_Sim>
0

> <s_m_subgroup_title>
ReplaceWaterV2_9-out1

> <s_m_subgroupid>
ReplaceWaterV2_9-out1

> <b_m_subgroup_collapsed>
0

$$$$
Core,ligand-designer_replace-H2O_14
                    3D
 Schrodinger Suite 2020-1.
 25 25  0  0  1  0            999 V2000
   -2.4435    2.6697   -0.0156 C   0  0  0  0  0  0
   -3.7682    2.9681   -0.0151 N   0  0  0  0  0  0
   -4.6478    1.9352   -0.0038 C   0  0  0  0  0  0
   -4.2472    0.5992    0.0074 C   0  0  0  0  0  0
   -2.8805    0.3134    0.0066 C   0  0  0  0  0  0
   -1.9447    1.3636   -0.0056 C   0  0  0  0  0  0
   -0.5730    1.2035   -0.0075 O   0  0  0  0  0  0
   -0.0279   -0.1147   -0.0060 C   0  0  0  0  0  0
   -5.6961    2.1955   -0.0040 H   0  0  0  0  0  0
   -4.9774   -0.1964    0.0164 H   0  0  0  0  0  0
   -2.5685   -0.7200    0.0159 H   0  0  0  0  0  0
   -0.3717   -0.6390    0.8876 H   0  0  0  0  0  0
   -0.3808   -0.6707   -0.8770 H   0  0  0  0  0  0
   -1.7681    3.5126   -0.0244 H   0  0  0  0  0  0
    2.0434    0.7431   -1.2313 C   0  0  0  0  0  0
    1.5172   -0.0475   -0.0160 C   0  0  2  0  0  0
    2.1723   -1.4467    0.0442 C   0  0  0  0  0  0
    1.7777   -2.1765    1.1889 O   0  0  0  0  0  0
    1.7544    0.2696   -2.1705 H   0  0  0  0  0  0
    3.1316    0.8126   -1.2169 H   0  0  0  0  0  0
    1.6583    1.7633   -1.2429 H   0  0  0  0  0  0
    1.8300    0.4954    0.8778 H   0  0  0  0  0  0
    1.8845   -2.0284   -0.8327 H   0  0  0  0  0  0
    3.2599   -1.3749    0.0037 H   0  0  0  0  0  0
    2.2090   -3.0340    1.1686 H   0  0  0  0  0  0
  1  2  1  0  0  0
  1  6  2  0  0  0
  1 14  1  0  0  0
  2  3  2  0  0  0
  3  4  1  0  0  0
  3  9  1  0  0  0
  4  5  2  0  0  0
  4 10  1  0  0  0
  5  6  1  0  0  0
  5 11  1  0  0  0
  6  7  1  0  0  0
  7  8  1  0  0  0
  8 12  1  0  0  0
  8 13  1  0  0  0
  8 16  1  0  0  0
 15 16  1  0  0  0
 15 19  1  0  0  0
 15 20  1  0  0  0
 15 21  1  0  0  0
 16 17  1  0  0  0
 16 22  1  0  0  0
 17 18  1  0  0  0
 17 23  1  0  0  0
 17 24  1  0  0  0
 18 25  1  0  0  0
M  END
> <i_m_ct_stereo_status>
1

> <i_m_stars>
0

> <s_m_entry_id>
18523

> <s_m_entry_name>
Structure11785

> <s_pdb_PDB_TITLE>
P38 KINASE CRYSTAL STRUCTURE IN COMPLEX WITH SMALL MOLECULE INHIBITOR

> <s_pdb_PDB_ID>
1W7H

> <i_pdb_PDB_Model>
1

> <r_pdb_PDB_CRYST1_a>
45.771

> <r_pdb_PDB_CRYST1_b>
87.101

> <r_pdb_PDB_CRYST1_c>
126.337

> <r_pdb_PDB_CRYST1_alpha>
90

> <r_pdb_PDB_CRYST1_beta>
90

> <r_pdb_PDB_CRYST1_gamma>
90

> <s_pdb_PDB_CRYST1_Space_Group>
P 21 21 21

> <i_pdb_PDB_CRYST1_z>
4

> <s_pdb_PDB_CLASSIFICATION>
TRANSFERASE

> <s_pdb_PDB_DEPOSITION_DATE>
02-SEP-04

> <s_pdb_PDB_format_version>
3.0

> <r_pdb_PDB_RESOLUTION>
2.21

> <s_pdb_PDB_EXPDTA>
X-RAY DIFFRACTION

> <r_pdb_PDB_EXPDTA_TEMPERATURE>
100

> <r_pdb_PDB_EXPDTA_PH>
7

> <s_pdb_PDB_REMARK_350_Biomolecule_1_Transform_1_Chains>
A

> <s_pdb_PDB_REMARK_350_Biomolecule_1_Transform_1_Matrix_1>
1.000000 0.000000 0.000000   0.000000;0.000000 1.000000 0.000000   0.000000;0.000000 0.000000 1.000000   0.000000

> <s_m_Source_Path>
/scratch/alberto/systems/Trials

> <s_m_Source_File>
1w7h_prep.pdb

> <i_m_Source_File_Index>
1

> <s_m_source_file>
ReplaceWaterV2_9.maegz

> <i_m_source_file_index>
15

> <i_lp_mmshare_version>
49012

> <i_f3d_flags>
0

> <s_epik_input>
W2NIXTFbY0hdW2NIXW5bY0hdYzFPW0NIMl1bQ0BIXShbQ0gzXSlbQ0gyXVtPSF0=

> <s_epik_cmdline>
J2VwaWtfcHl0aG9uJywgJy1waCcsICc3LjAnLCAnLXRuJywgJzgnLCAnLW1hJywgJzIwMCcsICctaW1hZScsICc8aW5maWxlLm1hZT4nLCAnLW9tYWUnLCAnPG91dGZpbGUubWFlPic=

> <r_epik_Ionization_Penalty>
  0.0024

> <r_epik_Ionization_Penalty_Charging>
  0.0000

> <r_epik_Ionization_Penalty_Neutral>
  0.0024

> <r_epik_State_Penalty>
  0.0017

> <r_epik_Charging_Adjusted_Penalty>
0.00169611082054937

> <i_epik_Tot_Q>
0

> <i_epik_Tot_abs_Q>
0

> <s_lp_Force_Field>
OPLS3e

> <r_lp_Energy>
13.629247

> <b_lp_Chiralities_Consistent>
1

> <s_lp_Variant>
Core,ligand-designer_replace-H2O_14-1

> <s_m_job_name>
ReplaceWaterV2_9

> <r_lp_tautomer_probability>
1

> <i_rge_num_r_groups>
1

> <r_rge_occupation_R1>
1

> <s_rge_R1>
ligand-designer_replace-H2O_14

> <s_rge_R1_s_m_title>
ligand-designer_replace-H2O_14

> <s_rge_R1_s_m_entry_id>
25683

> <s_rge_R1_s_m_entry_name>
ligand-designer_replace-H2O.smi-ligprep.20

> <s_rge_R1_s_m_smiles>
[*][C@H](C)CO

> <s_rge_R1_s_m_Source_File>
ligand-designer_replace-H2O.maegz-dedup.maegz-names.maegz

> <i_rge_R1_i_m_Source_File_Index>
15

> <s_rge_R1_s_m_Source_Path>
/Users/konze/projects/pathfinder/r-groups/final-r-groups

> <s_rge_R1_s_canvas_Unique_SMILES_Stereo>
C[C@@H](Cl)CO

> <s_rge_R1_s_st_Chirality_1>
2_R_3_4_1_9

> <i_rge_R1_i_lp_mmshare_version>
42013

> <i_rge_R1_i_f3d_flags>
0

> <i_rge_R1_i_m_stars>
0

> <s_rge_R1_s_m_subgroup_title>
ligand-designer_replace-H2O

> <s_rge_R1_s_m_subgroupid>
ligand-designer_replace-H2O.smi-ligprep111

> <b_rge_R1_b_m_subgroup_collapsed>
1

> <s_rge_R1_s_epik_input>
W0NIM11bQ0BASF0oQ2wpW0NIMl1bT0hd

> <s_rge_R1_s_epik_cmdline>
J2VwaWtfcHl0aG9uJywgJy1waHQnLCAnMC43JywgJy1waCcsICc3LjAnLCAnLXRuJywgJzgnLCAnLW1hJywgJzIwMCcsICctaW1hZScsICc8aW5maWxlLm1hZT4nLCAnLW9tYWUnLCAnPG91dGZpbGUubWFlPic=

> <r_rge_R1_r_epik_Ionization_Penalty>
0

> <r_rge_R1_r_epik_Ionization_Penalty_Charging>
0

> <r_rge_R1_r_epik_Ionization_Penalty_Neutral>
0

> <r_rge_R1_r_epik_State_Penalty>
0

> <r_rge_R1_r_epik_Charging_Adjusted_Penalty>
0

> <i_rge_R1_i_epik_Tot_Q>
0

> <i_rge_R1_i_epik_Tot_abs_Q>
0

> <s_rge_R1_s_lp_Force_Field>
OPLS_2005

> <r_rge_R1_r_lp_Energy>
1.27438295756426

> <b_rge_R1_b_lp_Chiralities_Consistent>
1

> <s_rge_R1_s_lp_Variant>
Untitled_Molecule_000065-1

> <r_rge_R1_r_lp_tautomer_probability>
1

> <r_rge_R1_r_m_Shape_Sim>
0.810964998978146

> <s_m_subgroup_title>
ReplaceWaterV2_9-out1

> <s_m_subgroupid>
ReplaceWaterV2_9-out1

> <b_m_subgroup_collapsed>
0

$$$$
Core,ligand-designer_replace-H2O_15
                    3D
 Schrodinger Suite 2020-1.
 25 25  0  0  1  0            999 V2000
   -2.4435    2.6697    0.0156 C   0  0  0  0  0  0
   -3.7682    2.9681    0.0151 N   0  0  0  0  0  0
   -4.6478    1.9352    0.0038 C   0  0  0  0  0  0
   -4.2472    0.5992   -0.0074 C   0  0  0  0  0  0
   -2.8805    0.3134   -0.0066 C   0  0  0  0  0  0
   -1.9447    1.3636    0.0055 C   0  0  0  0  0  0
   -0.5730    1.2035    0.0075 O   0  0  0  0  0  0
   -0.0279   -0.1147    0.0060 C   0  0  0  0  0  0
   -5.6961    2.1955    0.0040 H   0  0  0  0  0  0
   -4.9774   -0.1964   -0.0164 H   0  0  0  0  0  0
   -2.5685   -0.7200   -0.0159 H   0  0  0  0  0  0
   -0.3808   -0.6707    0.8770 H   0  0  0  0  0  0
   -0.3717   -0.6390   -0.8876 H   0  0  0  0  0  0
   -1.7681    3.5126    0.0244 H   0  0  0  0  0  0
    2.0434    0.7431    1.2313 C   0  0  0  0  0  0
    1.5172   -0.0475    0.0160 C   0  0  1  0  0  0
    2.1723   -1.4467   -0.0442 C   0  0  0  0  0  0
    1.7777   -2.1765   -1.1889 O   0  0  0  0  0  0
    1.7544    0.2696    2.1705 H   0  0  0  0  0  0
    1.6583    1.7633    1.2429 H   0  0  0  0  0  0
    3.1316    0.8126    1.2169 H   0  0  0  0  0  0
    1.8300    0.4954   -0.8778 H   0  0  0  0  0  0
    3.2599   -1.3749   -0.0037 H   0  0  0  0  0  0
    1.8845   -2.0284    0.8327 H   0  0  0  0  0  0
    2.2090   -3.0340   -1.1686 H   0  0  0  0  0  0
  1  2  1  0  0  0
  1  6  2  0  0  0
  1 14  1  0  0  0
  2  3  2  0  0  0
  3  4  1  0  0  0
  3  9  1  0  0  0
  4  5  2  0  0  0
  4 10  1  0  0  0
  5  6  1  0  0  0
  5 11  1  0  0  0
  6  7  1  0  0  0
  7  8  1  0  0  0
  8 12  1  0  0  0
  8 13  1  0  0  0
  8 16  1  0  0  0
 15 16  1  0  0  0
 15 19  1  0  0  0
 15 20  1  0  0  0
 15 21  1  0  0  0
 16 17  1  0  0  0
 16 22  1  0  0  0
 17 18  1  0  0  0
 17 23  1  0  0  0
 17 24  1  0  0  0
 18 25  1  0  0  0
M  END
> <i_m_ct_stereo_status>
1

> <i_m_stars>
0

> <s_m_entry_id>
18524

> <s_m_entry_name>
Structure11785

> <s_pdb_PDB_TITLE>
P38 KINASE CRYSTAL STRUCTURE IN COMPLEX WITH SMALL MOLECULE INHIBITOR

> <s_pdb_PDB_ID>
1W7H

> <i_pdb_PDB_Model>
1

> <r_pdb_PDB_CRYST1_a>
45.771

> <r_pdb_PDB_CRYST1_b>
87.101

> <r_pdb_PDB_CRYST1_c>
126.337

> <r_pdb_PDB_CRYST1_alpha>
90

> <r_pdb_PDB_CRYST1_beta>
90

> <r_pdb_PDB_CRYST1_gamma>
90

> <s_pdb_PDB_CRYST1_Space_Group>
P 21 21 21

> <i_pdb_PDB_CRYST1_z>
4

> <s_pdb_PDB_CLASSIFICATION>
TRANSFERASE

> <s_pdb_PDB_DEPOSITION_DATE>
02-SEP-04

> <s_pdb_PDB_format_version>
3.0

> <r_pdb_PDB_RESOLUTION>
2.21

> <s_pdb_PDB_EXPDTA>
X-RAY DIFFRACTION

> <r_pdb_PDB_EXPDTA_TEMPERATURE>
100

> <r_pdb_PDB_EXPDTA_PH>
7

> <s_pdb_PDB_REMARK_350_Biomolecule_1_Transform_1_Chains>
A

> <s_pdb_PDB_REMARK_350_Biomolecule_1_Transform_1_Matrix_1>
1.000000 0.000000 0.000000   0.000000;0.000000 1.000000 0.000000   0.000000;0.000000 0.000000 1.000000   0.000000

> <s_m_Source_Path>
/scratch/alberto/systems/Trials

> <s_m_Source_File>
1w7h_prep.pdb

> <i_m_Source_File_Index>
1

> <s_m_source_file>
ReplaceWaterV2_9.maegz

> <i_m_source_file_index>
16

> <i_lp_mmshare_version>
49012

> <i_f3d_flags>
0

> <s_epik_input>
W2NIXTFbY0hdW2NIXW5bY0hdYzFPW0NIMl1bQ0BASF0oW0NIM10pW0NIMl1bT0hd

> <s_epik_cmdline>
J2VwaWtfcHl0aG9uJywgJy1waCcsICc3LjAnLCAnLXRuJywgJzgnLCAnLW1hJywgJzIwMCcsICctaW1hZScsICc8aW5maWxlLm1hZT4nLCAnLW9tYWUnLCAnPG91dGZpbGUubWFlPic=

> <r_epik_Ionization_Penalty>
  0.0024

> <r_epik_Ionization_Penalty_Charging>
  0.0000

> <r_epik_Ionization_Penalty_Neutral>
  0.0024

> <r_epik_State_Penalty>
  0.0017

> <r_epik_Charging_Adjusted_Penalty>
0.00169611082054937

> <i_epik_Tot_Q>
0

> <i_epik_Tot_abs_Q>
0

> <s_lp_Force_Field>
OPLS3e

> <r_lp_Energy>
13.629462

> <b_lp_Chiralities_Consistent>
1

> <s_lp_Variant>
Core,ligand-designer_replace-H2O_15-1

> <s_m_job_name>
ReplaceWaterV2_9

> <r_lp_tautomer_probability>
1

> <i_rge_num_r_groups>
1

> <r_rge_occupation_R1>
1

> <s_rge_R1>
ligand-designer_replace-H2O_15

> <s_rge_R1_s_m_title>
ligand-designer_replace-H2O_15

> <s_rge_R1_s_m_entry_id>
25684

> <s_rge_R1_s_m_entry_name>
ligand-designer_replace-H2O.smi-ligprep.21

> <s_rge_R1_s_m_smiles>
[*][C@@H](C)CO

> <s_rge_R1_s_m_Source_File>
ligand-designer_replace-H2O.maegz-dedup.maegz-names.maegz

> <i_rge_R1_i_m_Source_File_Index>
16

> <s_rge_R1_s_m_Source_Path>
/Users/konze/projects/pathfinder/r-groups/final-r-groups

> <s_rge_R1_s_canvas_Unique_SMILES_Stereo>
C[C@H](Cl)CO

> <s_rge_R1_s_st_Chirality_1>
2_S_3_4_1_9

> <i_rge_R1_i_lp_mmshare_version>
42013

> <i_rge_R1_i_f3d_flags>
0

> <i_rge_R1_i_m_stars>
0

> <s_rge_R1_s_m_subgroup_title>
ligand-designer_replace-H2O

> <s_rge_R1_s_m_subgroupid>
ligand-designer_replace-H2O.smi-ligprep111

> <b_rge_R1_b_m_subgroup_collapsed>
1

> <s_rge_R1_s_epik_input>
W0NIM11bQ0BASF0oQ2wpW0NIMl1bT0hd

> <s_rge_R1_s_epik_cmdline>
J2VwaWtfcHl0aG9uJywgJy1waHQnLCAnMC43JywgJy1waCcsICc3LjAnLCAnLXRuJywgJzgnLCAnLW1hJywgJzIwMCcsICctaW1hZScsICc8aW5maWxlLm1hZT4nLCAnLW9tYWUnLCAnPG91dGZpbGUubWFlPic=

> <r_rge_R1_r_epik_Ionization_Penalty>
0

> <r_rge_R1_r_epik_Ionization_Penalty_Charging>
0

> <r_rge_R1_r_epik_Ionization_Penalty_Neutral>
0

> <r_rge_R1_r_epik_State_Penalty>
0

> <r_rge_R1_r_epik_Charging_Adjusted_Penalty>
0

> <i_rge_R1_i_epik_Tot_Q>
0

> <i_rge_R1_i_epik_Tot_abs_Q>
0

> <s_rge_R1_s_lp_Force_Field>
OPLS_2005

> <r_rge_R1_r_lp_Energy>
1.27438296868886

> <b_rge_R1_b_lp_Chiralities_Consistent>
1

> <s_rge_R1_s_lp_Variant>
Untitled_Molecule_000065-2

> <r_rge_R1_r_lp_tautomer_probability>
1

> <r_rge_R1_r_m_Shape_Sim>
0.810965223123828

> <s_m_subgroup_title>
ReplaceWaterV2_9-out1

> <s_m_subgroupid>
ReplaceWaterV2_9-out1

> <b_m_subgroup_collapsed>
0

$$$$
Core,ligand-designer_replace-H2O_16
                    3D
 Schrodinger Suite 2020-1.
 25 25  0  0  1  0            999 V2000
   -2.3758    2.6511    0.0191 C   0  0  0  0  0  0
   -3.6967    2.9655    0.0150 N   0  0  0  0  0  0
   -4.5884    1.9434   -0.0046 C   0  0  0  0  0  0
   -4.2039    0.6027   -0.0199 C   0  0  0  0  0  0
   -2.8408    0.3002   -0.0154 C   0  0  0  0  0  0
   -1.8926    1.3391    0.0043 C   0  0  0  0  0  0
   -0.5231    1.1624    0.0112 O   0  0  0  0  0  0
    0.0057   -0.1621   -0.0070 C   0  0  0  0  0  0
   -5.6334    2.2162   -0.0080 H   0  0  0  0  0  0
   -4.9437   -0.1842   -0.0349 H   0  0  0  0  0  0
   -2.5406   -0.7366   -0.0271 H   0  0  0  0  0  0
   -0.3409   -0.7027    0.8759 H   0  0  0  0  0  0
   -0.3414   -0.7006   -0.8913 H   0  0  0  0  0  0
   -1.6905    3.4857    0.0352 H   0  0  0  0  0  0
    3.2881    1.0557   -1.2030 C   0  0  0  0  0  0
    1.9513    0.5709   -1.1966 O   0  0  0  0  0  0
    1.5431   -0.0953   -0.0025 C   0  0  2  0  0  0
    2.1715   -1.5000    0.0882 C   0  0  0  0  0  0
    3.4668    1.6015   -2.1293 H   0  0  0  0  0  0
    4.0167    0.2464   -1.1540 H   0  0  0  0  0  0
    3.4682    1.7418   -0.3742 H   0  0  0  0  0  0
    1.8477    0.4848    0.8713 H   0  0  0  0  0  0
    1.8015   -2.0404    0.9601 H   0  0  0  0  0  0
    3.2562   -1.4531    0.1812 H   0  0  0  0  0  0
    1.9381   -2.0952   -0.7953 H   0  0  0  0  0  0
  1  2  1  0  0  0
  1  6  2  0  0  0
  1 14  1  0  0  0
  2  3  2  0  0  0
  3  4  1  0  0  0
  3  9  1  0  0  0
  4  5  2  0  0  0
  4 10  1  0  0  0
  5  6  1  0  0  0
  5 11  1  0  0  0
  6  7  1  0  0  0
  7  8  1  0  0  0
  8 12  1  0  0  0
  8 13  1  0  0  0
  8 17  1  0  0  0
 15 16  1  0  0  0
 15 19  1  0  0  0
 15 20  1  0  0  0
 15 21  1  0  0  0
 16 17  1  0  0  0
 17 18  1  0  0  0
 17 22  1  0  0  0
 18 23  1  0  0  0
 18 24  1  0  0  0
 18 25  1  0  0  0
M  END
> <i_m_ct_stereo_status>
1

> <i_m_stars>
0

> <s_m_entry_id>
18525

> <s_m_entry_name>
Structure11785

> <s_pdb_PDB_TITLE>
P38 KINASE CRYSTAL STRUCTURE IN COMPLEX WITH SMALL MOLECULE INHIBITOR

> <s_pdb_PDB_ID>
1W7H

> <i_pdb_PDB_Model>
1

> <r_pdb_PDB_CRYST1_a>
45.771

> <r_pdb_PDB_CRYST1_b>
87.101

> <r_pdb_PDB_CRYST1_c>
126.337

> <r_pdb_PDB_CRYST1_alpha>
90

> <r_pdb_PDB_CRYST1_beta>
90

> <r_pdb_PDB_CRYST1_gamma>
90

> <s_pdb_PDB_CRYST1_Space_Group>
P 21 21 21

> <i_pdb_PDB_CRYST1_z>
4

> <s_pdb_PDB_CLASSIFICATION>
TRANSFERASE

> <s_pdb_PDB_DEPOSITION_DATE>
02-SEP-04

> <s_pdb_PDB_format_version>
3.0

> <r_pdb_PDB_RESOLUTION>
2.21

> <s_pdb_PDB_EXPDTA>
X-RAY DIFFRACTION

> <r_pdb_PDB_EXPDTA_TEMPERATURE>
100

> <r_pdb_PDB_EXPDTA_PH>
7

> <s_pdb_PDB_REMARK_350_Biomolecule_1_Transform_1_Chains>
A

> <s_pdb_PDB_REMARK_350_Biomolecule_1_Transform_1_Matrix_1>
1.000000 0.000000 0.000000   0.000000;0.000000 1.000000 0.000000   0.000000;0.000000 0.000000 1.000000   0.000000

> <s_m_Source_Path>
/scratch/alberto/systems/Trials

> <s_m_Source_File>
1w7h_prep.pdb

> <i_m_Source_File_Index>
1

> <s_m_source_file>
ReplaceWaterV2_9.maegz

> <i_m_source_file_index>
17

> <i_lp_mmshare_version>
49012

> <i_f3d_flags>
0

> <s_epik_input>
W2NIXTFbY0hdW2NIXW5bY0hdYzFPW0NIMl1bQ0BASF0oW0NIM10pT1tDSDNd

> <s_epik_cmdline>
J2VwaWtfcHl0aG9uJywgJy1waCcsICc3LjAnLCAnLXRuJywgJzgnLCAnLW1hJywgJzIwMCcsICctaW1hZScsICc8aW5maWxlLm1hZT4nLCAnLW9tYWUnLCAnPG91dGZpbGUubWFlPic=

> <r_epik_Ionization_Penalty>
  0.0024

> <r_epik_Ionization_Penalty_Charging>
  0.0000

> <r_epik_Ionization_Penalty_Neutral>
  0.0024

> <r_epik_State_Penalty>
  0.0016

> <r_epik_Charging_Adjusted_Penalty>
0.00163398453908322

> <i_epik_Tot_Q>
0

> <i_epik_Tot_abs_Q>
0

> <s_lp_Force_Field>
OPLS3e

> <r_lp_Energy>
15.564423

> <b_lp_Chiralities_Consistent>
1

> <s_lp_Variant>
Core,ligand-designer_replace-H2O_16-1

> <s_m_job_name>
ReplaceWaterV2_9

> <r_lp_tautomer_probability>
1

> <i_rge_num_r_groups>
1

> <r_rge_occupation_R1>
1

> <s_rge_R1>
ligand-designer_replace-H2O_16

> <s_rge_R1_s_m_title>
ligand-designer_replace-H2O_16

> <s_rge_R1_s_m_entry_id>
25685

> <s_rge_R1_s_m_entry_name>
ligand-designer_replace-H2O.smi-ligprep.22

> <s_rge_R1_s_m_smiles>
[*][C@@H](C)OC

> <s_rge_R1_s_m_Source_File>
ligand-designer_replace-H2O.maegz-dedup.maegz-names.maegz

> <i_rge_R1_i_m_Source_File_Index>
17

> <s_rge_R1_s_m_Source_Path>
/Users/konze/projects/pathfinder/r-groups/final-r-groups

> <s_rge_R1_s_canvas_Unique_SMILES_Stereo>
C[C@H](Cl)OC

> <s_rge_R1_s_st_Chirality_1>
3_S_4_2_5_9

> <i_rge_R1_i_lp_mmshare_version>
42013

> <i_rge_R1_i_f3d_flags>
0

> <i_rge_R1_i_m_stars>
0

> <s_rge_R1_s_m_subgroup_title>
ligand-designer_replace-H2O

> <s_rge_R1_s_m_subgroupid>
ligand-designer_replace-H2O.smi-ligprep111

> <b_rge_R1_b_m_subgroup_collapsed>
1

> <s_rge_R1_s_epik_input>
W0NIM11PW0NAQEhdKENsKVtDSDNd

> <s_rge_R1_s_epik_cmdline>
J2VwaWtfcHl0aG9uJywgJy1waHQnLCAnMC43JywgJy1waCcsICc3LjAnLCAnLXRuJywgJzgnLCAnLW1hJywgJzIwMCcsICctaW1hZScsICc8aW5maWxlLm1hZT4nLCAnLW9tYWUnLCAnPG91dGZpbGUubWFlPic=

> <r_rge_R1_r_epik_Ionization_Penalty>
0

> <r_rge_R1_r_epik_Ionization_Penalty_Charging>
0

> <r_rge_R1_r_epik_Ionization_Penalty_Neutral>
0

> <r_rge_R1_r_epik_State_Penalty>
0

> <r_rge_R1_r_epik_Charging_Adjusted_Penalty>
0

> <i_rge_R1_i_epik_Tot_Q>
0

> <i_rge_R1_i_epik_Tot_abs_Q>
0

> <s_rge_R1_s_lp_Force_Field>
OPLS_2005

> <r_rge_R1_r_lp_Energy>
-1.00720011190172

> <b_rge_R1_b_lp_Chiralities_Consistent>
1

> <s_rge_R1_s_lp_Variant>
Untitled_Molecule_000067-1

> <r_rge_R1_r_lp_tautomer_probability>
1

> <r_rge_R1_r_m_Shape_Sim>
0.739219157268901

> <s_m_subgroup_title>
ReplaceWaterV2_9-out1

> <s_m_subgroupid>
ReplaceWaterV2_9-out1

> <b_m_subgroup_collapsed>
0

$$$$
Core,ligand-designer_replace-H2O_17
                    3D
 Schrodinger Suite 2020-1.
 25 25  0  0  1  0            999 V2000
   -2.3758    2.6511   -0.0191 C   0  0  0  0  0  0
   -3.6967    2.9655   -0.0150 N   0  0  0  0  0  0
   -4.5884    1.9434    0.0046 C   0  0  0  0  0  0
   -4.2039    0.6027    0.0199 C   0  0  0  0  0  0
   -2.8408    0.3002    0.0154 C   0  0  0  0  0  0
   -1.8926    1.3391   -0.0043 C   0  0  0  0  0  0
   -0.5231    1.1624   -0.0112 O   0  0  0  0  0  0
    0.0057   -0.1621    0.0070 C   0  0  0  0  0  0
   -5.6334    2.2162    0.0080 H   0  0  0  0  0  0
   -4.9437   -0.1842    0.0349 H   0  0  0  0  0  0
   -2.5406   -0.7366    0.0271 H   0  0  0  0  0  0
   -0.3414   -0.7006    0.8913 H   0  0  0  0  0  0
   -0.3409   -0.7027   -0.8759 H   0  0  0  0  0  0
   -1.6905    3.4857   -0.0352 H   0  0  0  0  0  0
    3.2881    1.0557    1.2030 C   0  0  0  0  0  0
    1.9513    0.5709    1.1966 O   0  0  0  0  0  0
    1.5431   -0.0953    0.0025 C   0  0  1  0  0  0
    2.1715   -1.5000   -0.0882 C   0  0  0  0  0  0
    3.4668    1.6015    2.1293 H   0  0  0  0  0  0
    3.4682    1.7418    0.3742 H   0  0  0  0  0  0
    4.0167    0.2464    1.1540 H   0  0  0  0  0  0
    1.8477    0.4848   -0.8713 H   0  0  0  0  0  0
    1.8015   -2.0404   -0.9601 H   0  0  0  0  0  0
    1.9381   -2.0952    0.7953 H   0  0  0  0  0  0
    3.2562   -1.4531   -0.1812 H   0  0  0  0  0  0
  1  2  1  0  0  0
  1  6  2  0  0  0
  1 14  1  0  0  0
  2  3  2  0  0  0
  3  4  1  0  0  0
  3  9  1  0  0  0
  4  5  2  0  0  0
  4 10  1  0  0  0
  5  6  1  0  0  0
  5 11  1  0  0  0
  6  7  1  0  0  0
  7  8  1  0  0  0
  8 12  1  0  0  0
  8 13  1  0  0  0
  8 17  1  0  0  0
 15 16  1  0  0  0
 15 19  1  0  0  0
 15 20  1  0  0  0
 15 21  1  0  0  0
 16 17  1  0  0  0
 17 18  1  0  0  0
 17 22  1  0  0  0
 18 23  1  0  0  0
 18 24  1  0  0  0
 18 25  1  0  0  0
M  END
> <i_m_ct_stereo_status>
1

> <i_m_stars>
0

> <s_m_entry_id>
18526

> <s_m_entry_name>
Structure11785

> <s_pdb_PDB_TITLE>
P38 KINASE CRYSTAL STRUCTURE IN COMPLEX WITH SMALL MOLECULE INHIBITOR

> <s_pdb_PDB_ID>
1W7H

> <i_pdb_PDB_Model>
1

> <r_pdb_PDB_CRYST1_a>
45.771

> <r_pdb_PDB_CRYST1_b>
87.101

> <r_pdb_PDB_CRYST1_c>
126.337

> <r_pdb_PDB_CRYST1_alpha>
90

> <r_pdb_PDB_CRYST1_beta>
90

> <r_pdb_PDB_CRYST1_gamma>
90

> <s_pdb_PDB_CRYST1_Space_Group>
P 21 21 21

> <i_pdb_PDB_CRYST1_z>
4

> <s_pdb_PDB_CLASSIFICATION>
TRANSFERASE

> <s_pdb_PDB_DEPOSITION_DATE>
02-SEP-04

> <s_pdb_PDB_format_version>
3.0

> <r_pdb_PDB_RESOLUTION>
2.21

> <s_pdb_PDB_EXPDTA>
X-RAY DIFFRACTION

> <r_pdb_PDB_EXPDTA_TEMPERATURE>
100

> <r_pdb_PDB_EXPDTA_PH>
7

> <s_pdb_PDB_REMARK_350_Biomolecule_1_Transform_1_Chains>
A

> <s_pdb_PDB_REMARK_350_Biomolecule_1_Transform_1_Matrix_1>
1.000000 0.000000 0.000000   0.000000;0.000000 1.000000 0.000000   0.000000;0.000000 0.000000 1.000000   0.000000

> <s_m_Source_Path>
/scratch/alberto/systems/Trials

> <s_m_Source_File>
1w7h_prep.pdb

> <i_m_Source_File_Index>
1

> <s_m_source_file>
ReplaceWaterV2_9.maegz

> <i_m_source_file_index>
18

> <i_lp_mmshare_version>
49012

> <i_f3d_flags>
0

> <s_epik_input>
W2NIXTFbY0hdW2NIXW5bY0hdYzFPW0NIMl1bQ0BIXShbQ0gzXSlPW0NIM10=

> <s_epik_cmdline>
J2VwaWtfcHl0aG9uJywgJy1waCcsICc3LjAnLCAnLXRuJywgJzgnLCAnLW1hJywgJzIwMCcsICctaW1hZScsICc8aW5maWxlLm1hZT4nLCAnLW9tYWUnLCAnPG91dGZpbGUubWFlPic=

> <r_epik_Ionization_Penalty>
  0.0024

> <r_epik_Ionization_Penalty_Charging>
  0.0000

> <r_epik_Ionization_Penalty_Neutral>
  0.0024

> <r_epik_State_Penalty>
  0.0016

> <r_epik_Charging_Adjusted_Penalty>
0.00163398453908322

> <i_epik_Tot_Q>
0

> <i_epik_Tot_abs_Q>
0

> <s_lp_Force_Field>
OPLS3e

> <r_lp_Energy>
15.565478

> <b_lp_Chiralities_Consistent>
1

> <s_lp_Variant>
Core,ligand-designer_replace-H2O_17-1

> <s_m_job_name>
ReplaceWaterV2_9

> <r_lp_tautomer_probability>
1

> <i_rge_num_r_groups>
1

> <r_rge_occupation_R1>
1

> <s_rge_R1>
ligand-designer_replace-H2O_17

> <s_rge_R1_s_m_title>
ligand-designer_replace-H2O_17

> <s_rge_R1_s_m_entry_id>
25686

> <s_rge_R1_s_m_entry_name>
ligand-designer_replace-H2O.smi-ligprep.23

> <s_rge_R1_s_m_smiles>
[*][C@H](C)OC

> <s_rge_R1_s_m_Source_File>
ligand-designer_replace-H2O.maegz-dedup.maegz-names.maegz

> <i_rge_R1_i_m_Source_File_Index>
18

> <s_rge_R1_s_m_Source_Path>
/Users/konze/projects/pathfinder/r-groups/final-r-groups

> <s_rge_R1_s_canvas_Unique_SMILES_Stereo>
C[C@@H](Cl)OC

> <s_rge_R1_s_st_Chirality_1>
3_R_4_2_5_9

> <i_rge_R1_i_lp_mmshare_version>
42013

> <i_rge_R1_i_f3d_flags>
0

> <i_rge_R1_i_m_stars>
0

> <s_rge_R1_s_m_subgroup_title>
ligand-designer_replace-H2O

> <s_rge_R1_s_m_subgroupid>
ligand-designer_replace-H2O.smi-ligprep111

> <b_rge_R1_b_m_subgroup_collapsed>
1

> <s_rge_R1_s_epik_input>
W0NIM11PW0NAQEhdKENsKVtDSDNd

> <s_rge_R1_s_epik_cmdline>
J2VwaWtfcHl0aG9uJywgJy1waHQnLCAnMC43JywgJy1waCcsICc3LjAnLCAnLXRuJywgJzgnLCAnLW1hJywgJzIwMCcsICctaW1hZScsICc8aW5maWxlLm1hZT4nLCAnLW9tYWUnLCAnPG91dGZpbGUubWFlPic=

> <r_rge_R1_r_epik_Ionization_Penalty>
0

> <r_rge_R1_r_epik_Ionization_Penalty_Charging>
0

> <r_rge_R1_r_epik_Ionization_Penalty_Neutral>
0

> <r_rge_R1_r_epik_State_Penalty>
0

> <r_rge_R1_r_epik_Charging_Adjusted_Penalty>
0

> <i_rge_R1_i_epik_Tot_Q>
0

> <i_rge_R1_i_epik_Tot_abs_Q>
0

> <s_rge_R1_s_lp_Force_Field>
OPLS_2005

> <r_rge_R1_r_lp_Energy>
-1.00720010977362

> <b_rge_R1_b_lp_Chiralities_Consistent>
1

> <s_rge_R1_s_lp_Variant>
Untitled_Molecule_000067-2

> <r_rge_R1_r_lp_tautomer_probability>
1

> <r_rge_R1_r_m_Shape_Sim>
0.739714564045123

> <s_m_subgroup_title>
ReplaceWaterV2_9-out1

> <s_m_subgroupid>
ReplaceWaterV2_9-out1

> <b_m_subgroup_collapsed>
0

$$$$
Core,ligand-designer_replace-H2O_18
                    3D
 Schrodinger Suite 2020-1.
 25 25  0  0  1  0            999 V2000
   -2.4516    2.6570    0.0688 C   0  0  0  0  0  0
   -3.7806    2.9356    0.0678 N   0  0  0  0  0  0
   -4.6442    1.8911    0.0106 C   0  0  0  0  0  0
   -4.2234    0.5623   -0.0451 C   0  0  0  0  0  0
   -2.8526    0.2968   -0.0423 C   0  0  0  0  0  0
   -1.9331    1.3597    0.0150 C   0  0  0  0  0  0
   -0.5592    1.2204    0.0226 O   0  0  0  0  0  0
    0.0089   -0.0890   -0.0280 C   0  0  0  0  0  0
   -5.6964    2.1355    0.0098 H   0  0  0  0  0  0
   -4.9414   -0.2432   -0.0900 H   0  0  0  0  0  0
   -2.5245   -0.7305   -0.0853 H   0  0  0  0  0  0
   -0.3482   -0.6702    0.8249 H   0  0  0  0  0  0
   -0.3217   -0.6049   -0.9323 H   0  0  0  0  0  0
   -1.7886    3.5086    0.1136 H   0  0  0  0  0  0
    2.1603   -1.4427    0.0140 C   0  0  0  0  0  0
    1.5553   -0.0247    0.0112 C   0  0  0  0  0  0
    2.0718    0.7920    1.2140 C   0  0  0  0  0  0
    2.0033    0.6100   -1.1728 O   0  0  0  0  0  0
    1.8648   -1.9972    0.9055 H   0  0  0  0  0  0
    3.2509   -1.4160   -0.0054 H   0  0  0  0  0  0
    1.8349   -2.0207   -0.8523 H   0  0  0  0  0  0
    1.7509    0.3497    2.1579 H   0  0  0  0  0  0
    1.7055    1.8193    1.1939 H   0  0  0  0  0  0
    3.1616    0.8397    1.2293 H   0  0  0  0  0  0
    2.9622    0.6488   -1.1534 H   0  0  0  0  0  0
  1  2  1  0  0  0
  1  6  2  0  0  0
  1 14  1  0  0  0
  2  3  2  0  0  0
  3  4  1  0  0  0
  3  9  1  0  0  0
  4  5  2  0  0  0
  4 10  1  0  0  0
  5  6  1  0  0  0
  5 11  1  0  0  0
  6  7  1  0  0  0
  7  8  1  0  0  0
  8 12  1  0  0  0
  8 13  1  0  0  0
  8 16  1  0  0  0
 15 16  1  0  0  0
 15 19  1  0  0  0
 15 20  1  0  0  0
 15 21  1  0  0  0
 16 17  1  0  0  0
 16 18  1  0  0  0
 17 22  1  0  0  0
 17 23  1  0  0  0
 17 24  1  0  0  0
 18 25  1  0  0  0
M  END
> <i_m_ct_stereo_status>
1

> <i_m_stars>
0

> <s_m_entry_id>
18527

> <s_m_entry_name>
Structure11785

> <s_pdb_PDB_TITLE>
P38 KINASE CRYSTAL STRUCTURE IN COMPLEX WITH SMALL MOLECULE INHIBITOR

> <s_pdb_PDB_ID>
1W7H

> <i_pdb_PDB_Model>
1

> <r_pdb_PDB_CRYST1_a>
45.771

> <r_pdb_PDB_CRYST1_b>
87.101

> <r_pdb_PDB_CRYST1_c>
126.337

> <r_pdb_PDB_CRYST1_alpha>
90

> <r_pdb_PDB_CRYST1_beta>
90

> <r_pdb_PDB_CRYST1_gamma>
90

> <s_pdb_PDB_CRYST1_Space_Group>
P 21 21 21

> <i_pdb_PDB_CRYST1_z>
4

> <s_pdb_PDB_CLASSIFICATION>
TRANSFERASE

> <s_pdb_PDB_DEPOSITION_DATE>
02-SEP-04

> <s_pdb_PDB_format_version>
3.0

> <r_pdb_PDB_RESOLUTION>
2.21

> <s_pdb_PDB_EXPDTA>
X-RAY DIFFRACTION

> <r_pdb_PDB_EXPDTA_TEMPERATURE>
100

> <r_pdb_PDB_EXPDTA_PH>
7

> <s_pdb_PDB_REMARK_350_Biomolecule_1_Transform_1_Chains>
A

> <s_pdb_PDB_REMARK_350_Biomolecule_1_Transform_1_Matrix_1>
1.000000 0.000000 0.000000   0.000000;0.000000 1.000000 0.000000   0.000000;0.000000 0.000000 1.000000   0.000000

> <s_m_Source_Path>
/scratch/alberto/systems/Trials

> <s_m_Source_File>
1w7h_prep.pdb

> <i_m_Source_File_Index>
1

> <s_m_source_file>
ReplaceWaterV2_9.maegz

> <i_m_source_file_index>
19

> <i_lp_mmshare_version>
49012

> <i_f3d_flags>
0

> <s_epik_input>
W2NIXTFbY0hdW2NIXW5bY0hdYzFPW0NIMl1DKFtDSDNdKShbQ0gzXSlbT0hd

> <s_epik_cmdline>
J2VwaWtfcHl0aG9uJywgJy1waCcsICc3LjAnLCAnLXRuJywgJzgnLCAnLW1hJywgJzIwMCcsICctaW1hZScsICc8aW5maWxlLm1hZT4nLCAnLW9tYWUnLCAnPG91dGZpbGUubWFlPic=

> <r_epik_Ionization_Penalty>
  0.0024

> <r_epik_Ionization_Penalty_Charging>
  0.0000

> <r_epik_Ionization_Penalty_Neutral>
  0.0024

> <r_epik_State_Penalty>
  0.0017

> <r_epik_Charging_Adjusted_Penalty>
0.00169611082054937

> <i_epik_Tot_Q>
0

> <i_epik_Tot_abs_Q>
0

> <s_lp_Force_Field>
OPLS3e

> <r_lp_Energy>
13.710249

> <b_lp_Chiralities_Consistent>
1

> <s_lp_Variant>
Core,ligand-designer_replace-H2O_18-1

> <s_m_job_name>
ReplaceWaterV2_9

> <r_lp_tautomer_probability>
1

> <i_rge_num_r_groups>
1

> <r_rge_occupation_R1>
1

> <s_rge_R1>
ligand-designer_replace-H2O_18

> <s_rge_R1_s_m_title>
ligand-designer_replace-H2O_18

> <s_rge_R1_s_m_entry_id>
25687

> <s_rge_R1_s_m_entry_name>
ligand-designer_replace-H2O.smi-ligprep.25

> <s_rge_R1_s_m_smiles>
[*]C(C)(C)O

> <s_rge_R1_s_m_Source_File>
ligand-designer_replace-H2O.maegz-dedup.maegz-names.maegz

> <i_rge_R1_i_m_Source_File_Index>
19

> <s_rge_R1_s_m_Source_Path>
/Users/konze/projects/pathfinder/r-groups/final-r-groups

> <s_rge_R1_s_canvas_Unique_SMILES_Stereo>
CC(Cl)(C)O

> <i_rge_R1_i_lp_mmshare_version>
42013

> <i_rge_R1_i_f3d_flags>
0

> <i_rge_R1_i_m_stars>
0

> <s_rge_R1_s_m_subgroup_title>
ligand-designer_replace-H2O

> <s_rge_R1_s_m_subgroupid>
ligand-designer_replace-H2O.smi-ligprep111

> <b_rge_R1_b_m_subgroup_collapsed>
1

> <s_rge_R1_s_epik_input>
W0NIM11DKENsKShbQ0gzXSlbT0hd

> <s_rge_R1_s_epik_cmdline>
J2VwaWtfcHl0aG9uJywgJy1waHQnLCAnMC43JywgJy1waCcsICc3LjAnLCAnLXRuJywgJzgnLCAnLW1hJywgJzIwMCcsICctaW1hZScsICc8aW5maWxlLm1hZT4nLCAnLW9tYWUnLCAnPG91dGZpbGUubWFlPic=

> <r_rge_R1_r_epik_Ionization_Penalty>
0

> <r_rge_R1_r_epik_Ionization_Penalty_Charging>
0

> <r_rge_R1_r_epik_Ionization_Penalty_Neutral>
0

> <r_rge_R1_r_epik_State_Penalty>
0

> <r_rge_R1_r_epik_Charging_Adjusted_Penalty>
0

> <i_rge_R1_i_epik_Tot_Q>
0

> <i_rge_R1_i_epik_Tot_abs_Q>
0

> <s_rge_R1_s_lp_Force_Field>
OPLS_2005

> <r_rge_R1_r_lp_Energy>
-2.10699629281164

> <b_rge_R1_b_lp_Chiralities_Consistent>
1

> <s_rge_R1_s_lp_Variant>
Untitled_Molecule_000071-1

> <r_rge_R1_r_lp_tautomer_probability>
1

> <r_rge_R1_r_m_Shape_Sim>
0.811886438453937

> <s_m_subgroup_title>
ReplaceWaterV2_9-out1

> <s_m_subgroupid>
ReplaceWaterV2_9-out1

> <b_m_subgroup_collapsed>
0

$$$$
Core,ligand-designer_replace-H2O_19
                    3D
 Schrodinger Suite 2020-1.
 26 27  0  0  1  0            999 V2000
   -1.9150    1.3920   -0.1095 C   0  0  0  0  0  0
   -2.6323    2.5448   -0.1144 N   0  0  0  0  0  0
   -1.9488    3.7136   -0.0312 C   0  0  0  0  0  0
   -0.5580    3.7733    0.0578 C   0  0  0  0  0  0
    0.1614    2.5766    0.0613 C   0  0  0  0  0  0
   -0.5202    1.3489   -0.0239 C   0  0  0  0  0  0
    0.0818    0.1063   -0.0299 O   0  0  0  0  0  0
    1.5032    0.0229    0.0589 C   0  0  0  0  0  0
   -2.5392    4.6180   -0.0366 H   0  0  0  0  0  0
   -0.0487    4.7235    0.1231 H   0  0  0  0  0  0
    1.2376    2.6201    0.1308 H   0  0  0  0  0  0
    1.9470    0.5497   -0.7883 H   0  0  0  0  0  0
    1.8625    0.5061    0.9698 H   0  0  0  0  0  0
   -2.4864    0.4778   -0.1769 H   0  0  0  0  0  0
    1.5078   -2.1009    1.2355 O   0  0  0  0  0  0
    1.9364   -1.4581    0.0438 C   0  0  0  0  0  0
    1.6131   -2.2227   -1.2564 C   0  0  0  0  0  0
    2.9748   -2.9204   -1.1071 C   0  0  0  0  0  0
    3.4226   -1.6920   -0.2983 C   0  0  0  0  0  0
    1.7765   -3.0215    1.1970 H   0  0  0  0  0  0
    0.7456   -2.8833   -1.2258 H   0  0  0  0  0  0
    1.5772   -1.5978   -2.1519 H   0  0  0  0  0  0
    2.9376   -3.8441   -0.5255 H   0  0  0  0  0  0
    3.5188   -3.1003   -2.0350 H   0  0  0  0  0  0
    3.8674   -0.9293   -0.9419 H   0  0  0  0  0  0
    4.0856   -1.9046    0.5413 H   0  0  0  0  0  0
  1  2  1  0  0  0
  1  6  2  0  0  0
  1 14  1  0  0  0
  2  3  2  0  0  0
  3  4  1  0  0  0
  3  9  1  0  0  0
  4  5  2  0  0  0
  4 10  1  0  0  0
  5  6  1  0  0  0
  5 11  1  0  0  0
  6  7  1  0  0  0
  7  8  1  0  0  0
  8 12  1  0  0  0
  8 13  1  0  0  0
  8 16  1  0  0  0
 15 16  1  0  0  0
 15 20  1  0  0  0
 16 19  1  0  0  0
 16 17  1  0  0  0
 17 18  1  0  0  0
 17 21  1  0  0  0
 17 22  1  0  0  0
 18 19  1  0  0  0
 18 23  1  0  0  0
 18 24  1  0  0  0
 19 25  1  0  0  0
 19 26  1  0  0  0
M  END
> <i_m_ct_stereo_status>
1

> <i_m_stars>
0

> <s_m_entry_id>
18528

> <s_m_entry_name>
Structure11785

> <s_pdb_PDB_TITLE>
P38 KINASE CRYSTAL STRUCTURE IN COMPLEX WITH SMALL MOLECULE INHIBITOR

> <s_pdb_PDB_ID>
1W7H

> <i_pdb_PDB_Model>
1

> <r_pdb_PDB_CRYST1_a>
45.771

> <r_pdb_PDB_CRYST1_b>
87.101

> <r_pdb_PDB_CRYST1_c>
126.337

> <r_pdb_PDB_CRYST1_alpha>
90

> <r_pdb_PDB_CRYST1_beta>
90

> <r_pdb_PDB_CRYST1_gamma>
90

> <s_pdb_PDB_CRYST1_Space_Group>
P 21 21 21

> <i_pdb_PDB_CRYST1_z>
4

> <s_pdb_PDB_CLASSIFICATION>
TRANSFERASE

> <s_pdb_PDB_DEPOSITION_DATE>
02-SEP-04

> <s_pdb_PDB_format_version>
3.0

> <r_pdb_PDB_RESOLUTION>
2.21

> <s_pdb_PDB_EXPDTA>
X-RAY DIFFRACTION

> <r_pdb_PDB_EXPDTA_TEMPERATURE>
100

> <r_pdb_PDB_EXPDTA_PH>
7

> <s_pdb_PDB_REMARK_350_Biomolecule_1_Transform_1_Chains>
A

> <s_pdb_PDB_REMARK_350_Biomolecule_1_Transform_1_Matrix_1>
1.000000 0.000000 0.000000   0.000000;0.000000 1.000000 0.000000   0.000000;0.000000 0.000000 1.000000   0.000000

> <s_m_Source_Path>
/scratch/alberto/systems/Trials

> <s_m_Source_File>
1w7h_prep.pdb

> <i_m_Source_File_Index>
1

> <s_m_source_file>
ReplaceWaterV2_9.maegz

> <i_m_source_file_index>
20

> <i_lp_mmshare_version>
49012

> <i_f3d_flags>
0

> <s_epik_input>
W2NIXTFbY0hdW2NIXW5bY0hdYzFPW0NIMl1DMihbT0hdKVtDSDJdW0NIMl1bQ0gyXTI=

> <s_epik_cmdline>
J2VwaWtfcHl0aG9uJywgJy1waCcsICc3LjAnLCAnLXRuJywgJzgnLCAnLW1hJywgJzIwMCcsICctaW1hZScsICc8aW5maWxlLm1hZT4nLCAnLW9tYWUnLCAnPG91dGZpbGUubWFlPic=

> <r_epik_Ionization_Penalty>
  0.0024

> <r_epik_Ionization_Penalty_Charging>
  0.0000

> <r_epik_Ionization_Penalty_Neutral>
  0.0024

> <r_epik_State_Penalty>
  0.0016

> <r_epik_Charging_Adjusted_Penalty>
0.00162845065322854

> <i_epik_Tot_Q>
0

> <i_epik_Tot_abs_Q>
0

> <s_lp_Force_Field>
OPLS3e

> <r_lp_Energy>
32.821933

> <b_lp_Chiralities_Consistent>
1

> <s_lp_Variant>
Core,ligand-designer_replace-H2O_19-1

> <s_m_job_name>
ReplaceWaterV2_9

> <r_lp_tautomer_probability>
1

> <i_rge_num_r_groups>
1

> <r_rge_occupation_R1>
1

> <s_rge_R1>
ligand-designer_replace-H2O_19

> <s_rge_R1_s_m_title>
ligand-designer_replace-H2O_19

> <s_rge_R1_s_m_entry_id>
25688

> <s_rge_R1_s_m_entry_name>
ligand-designer_replace-H2O.smi-ligprep.28

> <s_rge_R1_s_m_smiles>
[*]C1(O)CCC1

> <s_rge_R1_s_m_Source_File>
ligand-designer_replace-H2O.maegz-dedup.maegz-names.maegz

> <i_rge_R1_i_m_Source_File_Index>
20

> <s_rge_R1_s_m_Source_Path>
/Users/konze/projects/pathfinder/r-groups/final-r-groups

> <s_rge_R1_s_canvas_Unique_SMILES_Stereo>
OC1(Cl)CCC1

> <i_rge_R1_i_lp_mmshare_version>
42013

> <i_rge_R1_i_f3d_flags>
0

> <i_rge_R1_i_m_stars>
0

> <s_rge_R1_s_m_subgroup_title>
ligand-designer_replace-H2O

> <s_rge_R1_s_m_subgroupid>
ligand-designer_replace-H2O.smi-ligprep111

> <b_rge_R1_b_m_subgroup_collapsed>
1

> <s_rge_R1_s_epik_input>
W09IXUMxKENsKVtDSDJdW0NIMl1bQ0gyXTE=

> <s_rge_R1_s_epik_cmdline>
J2VwaWtfcHl0aG9uJywgJy1waHQnLCAnMC43JywgJy1waCcsICc3LjAnLCAnLXRuJywgJzgnLCAnLW1hJywgJzIwMCcsICctaW1hZScsICc8aW5maWxlLm1hZT4nLCAnLW9tYWUnLCAnPG91dGZpbGUubWFlPic=

> <r_rge_R1_r_epik_Ionization_Penalty>
0

> <r_rge_R1_r_epik_Ionization_Penalty_Charging>
0

> <r_rge_R1_r_epik_Ionization_Penalty_Neutral>
0

> <r_rge_R1_r_epik_State_Penalty>
0

> <r_rge_R1_r_epik_Charging_Adjusted_Penalty>
0

> <i_rge_R1_i_epik_Tot_Q>
0

> <i_rge_R1_i_epik_Tot_abs_Q>
0

> <s_rge_R1_s_lp_Force_Field>
OPLS_2005

> <r_rge_R1_r_lp_Energy>
6.74400151343269

> <b_rge_R1_b_lp_Chiralities_Consistent>
1

> <s_rge_R1_s_lp_Variant>
Untitled_Molecule_000156-1

> <r_rge_R1_r_lp_tautomer_probability>
1

> <r_rge_R1_r_m_Shape_Sim>
0.715396895621345

> <s_m_subgroup_title>
ReplaceWaterV2_9-out1

> <s_m_subgroupid>
ReplaceWaterV2_9-out1

> <b_m_subgroup_collapsed>
0

$$$$
Core,ligand-designer_replace-H2O_20
                    3D
 Schrodinger Suite 2020-1.
 26 27  0  0  1  0            999 V2000
   -1.9176    1.3952    0.0029 C   0  0  0  0  0  0
   -2.6391    2.5453    0.0041 N   0  0  0  0  0  0
   -1.9575    3.7181   -0.0128 C   0  0  0  0  0  0
   -0.5643    3.7842   -0.0318 C   0  0  0  0  0  0
    0.1595    2.5903   -0.0329 C   0  0  0  0  0  0
   -0.5201    1.3587   -0.0140 C   0  0  0  0  0  0
    0.0863    0.1182   -0.0106 O   0  0  0  0  0  0
    1.5088    0.0431    0.0010 C   0  0  0  0  0  0
   -2.5514    4.6203   -0.0110 H   0  0  0  0  0  0
   -0.0566    4.7374   -0.0454 H   0  0  0  0  0  0
    1.2378    2.6390   -0.0488 H   0  0  0  0  0  0
    1.9189    0.5071   -0.8978 H   0  0  0  0  0  0
    1.9104    0.5738    0.8667 H   0  0  0  0  0  0
   -2.4878    0.4780    0.0177 H   0  0  0  0  0  0
    3.7054   -3.2258    2.3086 O   0  0  0  0  0  0
    2.9544   -2.9162    1.1538 C   0  0  2  0  0  0
    3.4137   -1.7457    0.2699 C   0  0  0  0  0  0
    1.9255   -1.4346    0.0551 C   0  0  1  0  0  0
    1.5967   -2.2195    1.3334 C   0  0  0  0  0  0
    4.4913   -3.7082    2.0421 H   0  0  0  0  0  0
    2.8719   -3.8604    0.6112 H   0  0  0  0  0  0
    3.9624   -1.0043    0.8549 H   0  0  0  0  0  0
    3.9757   -2.0356   -0.6186 H   0  0  0  0  0  0
    1.5338   -1.9305   -0.8364 H   0  0  0  0  0  0
    0.7305   -2.8797    1.2805 H   0  0  0  0  0  0
    1.5784   -1.6249    2.2494 H   0  0  0  0  0  0
  1  2  1  0  0  0
  1  6  2  0  0  0
  1 14  1  0  0  0
  2  3  2  0  0  0
  3  4  1  0  0  0
  3  9  1  0  0  0
  4  5  2  0  0  0
  4 10  1  0  0  0
  5  6  1  0  0  0
  5 11  1  0  0  0
  6  7  1  0  0  0
  7  8  1  0  0  0
  8 12  1  0  0  0
  8 13  1  0  0  0
  8 18  1  0  0  0
 15 16  1  0  0  0
 15 20  1  0  0  0
 16 19  1  0  0  0
 16 17  1  0  0  0
 16 21  1  0  0  0
 17 18  1  0  0  0
 17 22  1  0  0  0
 17 23  1  0  0  0
 18 19  1  0  0  0
 18 24  1  0  0  0
 19 25  1  0  0  0
 19 26  1  0  0  0
M  END
> <i_m_ct_stereo_status>
1

> <i_m_stars>
0

> <s_m_entry_id>
18529

> <s_m_entry_name>
Structure11785

> <s_pdb_PDB_TITLE>
P38 KINASE CRYSTAL STRUCTURE IN COMPLEX WITH SMALL MOLECULE INHIBITOR

> <s_pdb_PDB_ID>
1W7H

> <i_pdb_PDB_Model>
1

> <r_pdb_PDB_CRYST1_a>
45.771

> <r_pdb_PDB_CRYST1_b>
87.101

> <r_pdb_PDB_CRYST1_c>
126.337

> <r_pdb_PDB_CRYST1_alpha>
90

> <r_pdb_PDB_CRYST1_beta>
90

> <r_pdb_PDB_CRYST1_gamma>
90

> <s_pdb_PDB_CRYST1_Space_Group>
P 21 21 21

> <i_pdb_PDB_CRYST1_z>
4

> <s_pdb_PDB_CLASSIFICATION>
TRANSFERASE

> <s_pdb_PDB_DEPOSITION_DATE>
02-SEP-04

> <s_pdb_PDB_format_version>
3.0

> <r_pdb_PDB_RESOLUTION>
2.21

> <s_pdb_PDB_EXPDTA>
X-RAY DIFFRACTION

> <r_pdb_PDB_EXPDTA_TEMPERATURE>
100

> <r_pdb_PDB_EXPDTA_PH>
7

> <s_pdb_PDB_REMARK_350_Biomolecule_1_Transform_1_Chains>
A

> <s_pdb_PDB_REMARK_350_Biomolecule_1_Transform_1_Matrix_1>
1.000000 0.000000 0.000000   0.000000;0.000000 1.000000 0.000000   0.000000;0.000000 0.000000 1.000000   0.000000

> <s_m_Source_Path>
/scratch/alberto/systems/Trials

> <s_m_Source_File>
1w7h_prep.pdb

> <i_m_Source_File_Index>
1

> <s_m_source_file>
ReplaceWaterV2_9.maegz

> <i_m_source_file_index>
21

> <i_lp_mmshare_version>
49012

> <i_f3d_flags>
0

> <s_epik_input>
W2NIXTFbY0hdW2NIXW5bY0hdYzFPW0NIMl1bQ0BIXShbQ0gyXTIpW0NIMl1bQ0BIXTJbT0hd

> <s_epik_cmdline>
J2VwaWtfcHl0aG9uJywgJy1waCcsICc3LjAnLCAnLXRuJywgJzgnLCAnLW1hJywgJzIwMCcsICctaW1hZScsICc8aW5maWxlLm1hZT4nLCAnLW9tYWUnLCAnPG91dGZpbGUubWFlPic=

> <r_epik_Ionization_Penalty>
  0.0024

> <r_epik_Ionization_Penalty_Charging>
  0.0000

> <r_epik_Ionization_Penalty_Neutral>
  0.0024

> <r_epik_State_Penalty>
  0.0017

> <r_epik_Charging_Adjusted_Penalty>
0.00169407867043527

> <i_epik_Tot_Q>
0

> <i_epik_Tot_abs_Q>
0

> <s_lp_Force_Field>
OPLS3e

> <r_lp_Energy>
13.930441

> <b_lp_Chiralities_Consistent>
1

> <s_lp_Variant>
Core,ligand-designer_replace-H2O_20-1

> <s_m_job_name>
ReplaceWaterV2_9

> <r_lp_tautomer_probability>
1

> <i_rge_num_r_groups>
1

> <r_rge_occupation_R1>
1

> <s_rge_R1>
ligand-designer_replace-H2O_20

> <s_rge_R1_s_m_title>
ligand-designer_replace-H2O_20

> <s_rge_R1_s_m_entry_id>
25689

> <s_rge_R1_s_m_entry_name>
ligand-designer_replace-H2O.smi-ligprep.29

> <s_rge_R1_s_m_smiles>
[*][C@@H]1C[C@@H](C1)O

> <s_rge_R1_s_m_Source_File>
ligand-designer_replace-H2O.maegz-dedup.maegz-names.maegz

> <i_rge_R1_i_m_Source_File_Index>
21

> <s_rge_R1_s_m_Source_Path>
/Users/konze/projects/pathfinder/r-groups/final-r-groups

> <s_rge_R1_s_canvas_Unique_SMILES_Stereo>
O[C@@H]1C[C@H](Cl)C1

> <s_rge_R1_s_st_Chirality_1>
2_ANS_1_3_6_8

> <i_rge_R1_i_lp_mmshare_version>
42013

> <i_rge_R1_i_f3d_flags>
0

> <s_rge_R1_s_st_Chirality_2>
4_ANS_3_5_6_11

> <i_rge_R1_i_m_stars>
0

> <s_rge_R1_s_m_subgroup_title>
ligand-designer_replace-H2O

> <s_rge_R1_s_m_subgroupid>
ligand-designer_replace-H2O.smi-ligprep111

> <b_rge_R1_b_m_subgroup_collapsed>
1

> <s_rge_R1_s_epik_input>
W09IXVtDQEBIXTFbQ0gyXVtDQEhdKENsKVtDSDJdMQ==

> <s_rge_R1_s_epik_cmdline>
J2VwaWtfcHl0aG9uJywgJy1waHQnLCAnMC43JywgJy1waCcsICc3LjAnLCAnLXRuJywgJzgnLCAnLW1hJywgJzIwMCcsICctaW1hZScsICc8aW5maWxlLm1hZT4nLCAnLW9tYWUnLCAnPG91dGZpbGUubWFlPic=

> <r_rge_R1_r_epik_Ionization_Penalty>
0

> <r_rge_R1_r_epik_Ionization_Penalty_Charging>
0

> <r_rge_R1_r_epik_Ionization_Penalty_Neutral>
0

> <r_rge_R1_r_epik_State_Penalty>
0

> <r_rge_R1_r_epik_Charging_Adjusted_Penalty>
0

> <i_rge_R1_i_epik_Tot_Q>
0

> <i_rge_R1_i_epik_Tot_abs_Q>
0

> <s_rge_R1_s_lp_Force_Field>
OPLS_2005

> <r_rge_R1_r_lp_Energy>
6.39741786149954

> <b_rge_R1_b_lp_Chiralities_Consistent>
1

> <s_rge_R1_s_lp_Variant>
Untitled_Molecule_000155-1

> <r_rge_R1_r_lp_tautomer_probability>
1

> <r_rge_R1_r_m_Shape_Sim>
0.718153918169307

> <s_m_subgroup_title>
ReplaceWaterV2_9-out1

> <s_m_subgroupid>
ReplaceWaterV2_9-out1

> <b_m_subgroup_collapsed>
0

$$$$
Core,ligand-designer_replace-H2O_21
                    3D
 Schrodinger Suite 2020-1.
 26 27  0  0  1  0            999 V2000
   -1.9189    1.4045   -0.0016 C   0  0  0  0  0  0
   -2.6320    2.5599   -0.0106 N   0  0  0  0  0  0
   -1.9417    3.7278   -0.0064 C   0  0  0  0  0  0
   -0.5481    3.7839    0.0077 C   0  0  0  0  0  0
    0.1670    2.5845    0.0172 C   0  0  0  0  0  0
   -0.5217    1.3579    0.0114 C   0  0  0  0  0  0
    0.0760    0.1129    0.0173 O   0  0  0  0  0  0
    1.4982    0.0283    0.0110 C   0  0  0  0  0  0
   -2.5285    4.6345   -0.0137 H   0  0  0  0  0  0
   -0.0336    4.7336    0.0117 H   0  0  0  0  0  0
    1.2456    2.6250    0.0293 H   0  0  0  0  0  0
    1.9059    0.5502   -0.8571 H   0  0  0  0  0  0
    1.9081    0.4970    0.9074 H   0  0  0  0  0  0
   -2.4958    0.4914   -0.0069 H   0  0  0  0  0  0
    2.9671   -4.2138   -0.6086 O   0  0  0  0  0  0
    2.9697   -2.9157   -1.1710 C   0  0  2  0  0  0
    3.3932   -1.7698   -0.2294 C   0  0  0  0  0  0
    1.9083   -1.4517   -0.0301 C   0  0  2  0  0  0
    1.5898   -2.2401   -1.3039 C   0  0  0  0  0  0
    3.8747   -4.5195   -0.5432 H   0  0  0  0  0  0
    3.5253   -2.9488   -2.1093 H   0  0  0  0  0  0
    3.9230   -2.0824    0.6716 H   0  0  0  0  0  0
    3.9508   -1.0095   -0.7801 H   0  0  0  0  0  0
    1.5083   -1.9455    0.8586 H   0  0  0  0  0  0
    1.5454   -1.6355   -2.2118 H   0  0  0  0  0  0
    0.7339   -2.9124   -1.2276 H   0  0  0  0  0  0
  1  2  1  0  0  0
  1  6  2  0  0  0
  1 14  1  0  0  0
  2  3  2  0  0  0
  3  4  1  0  0  0
  3  9  1  0  0  0
  4  5  2  0  0  0
  4 10  1  0  0  0
  5  6  1  0  0  0
  5 11  1  0  0  0
  6  7  1  0  0  0
  7  8  1  0  0  0
  8 12  1  0  0  0
  8 13  1  0  0  0
  8 18  1  0  0  0
 15 16  1  0  0  0
 15 20  1  0  0  0
 16 19  1  0  0  0
 16 17  1  0  0  0
 16 21  1  0  0  0
 17 18  1  0  0  0
 17 22  1  0  0  0
 17 23  1  0  0  0
 18 19  1  0  0  0
 18 24  1  0  0  0
 19 25  1  0  0  0
 19 26  1  0  0  0
M  END
> <i_m_ct_stereo_status>
1

> <i_m_stars>
0

> <s_m_entry_id>
18530

> <s_m_entry_name>
Structure11785

> <s_pdb_PDB_TITLE>
P38 KINASE CRYSTAL STRUCTURE IN COMPLEX WITH SMALL MOLECULE INHIBITOR

> <s_pdb_PDB_ID>
1W7H

> <i_pdb_PDB_Model>
1

> <r_pdb_PDB_CRYST1_a>
45.771

> <r_pdb_PDB_CRYST1_b>
87.101

> <r_pdb_PDB_CRYST1_c>
126.337

> <r_pdb_PDB_CRYST1_alpha>
90

> <r_pdb_PDB_CRYST1_beta>
90

> <r_pdb_PDB_CRYST1_gamma>
90

> <s_pdb_PDB_CRYST1_Space_Group>
P 21 21 21

> <i_pdb_PDB_CRYST1_z>
4

> <s_pdb_PDB_CLASSIFICATION>
TRANSFERASE

> <s_pdb_PDB_DEPOSITION_DATE>
02-SEP-04

> <s_pdb_PDB_format_version>
3.0

> <r_pdb_PDB_RESOLUTION>
2.21

> <s_pdb_PDB_EXPDTA>
X-RAY DIFFRACTION

> <r_pdb_PDB_EXPDTA_TEMPERATURE>
100

> <r_pdb_PDB_EXPDTA_PH>
7

> <s_pdb_PDB_REMARK_350_Biomolecule_1_Transform_1_Chains>
A

> <s_pdb_PDB_REMARK_350_Biomolecule_1_Transform_1_Matrix_1>
1.000000 0.000000 0.000000   0.000000;0.000000 1.000000 0.000000   0.000000;0.000000 0.000000 1.000000   0.000000

> <s_m_Source_Path>
/scratch/alberto/systems/Trials

> <s_m_Source_File>
1w7h_prep.pdb

> <i_m_Source_File_Index>
1

> <s_m_source_file>
ReplaceWaterV2_9.maegz

> <i_m_source_file_index>
22

> <i_lp_mmshare_version>
49012

> <i_f3d_flags>
0

> <s_epik_input>
W2NIXTFbY0hdW2NIXW5bY0hdYzFPW0NIMl1bQ0BASF0oW0NIMl0yKVtDSDJdW0NASF0yW09IXQ==

> <s_epik_cmdline>
J2VwaWtfcHl0aG9uJywgJy1waCcsICc3LjAnLCAnLXRuJywgJzgnLCAnLW1hJywgJzIwMCcsICctaW1hZScsICc8aW5maWxlLm1hZT4nLCAnLW9tYWUnLCAnPG91dGZpbGUubWFlPic=

> <r_epik_Ionization_Penalty>
  0.0024

> <r_epik_Ionization_Penalty_Charging>
  0.0000

> <r_epik_Ionization_Penalty_Neutral>
  0.0024

> <r_epik_State_Penalty>
  0.0017

> <r_epik_Charging_Adjusted_Penalty>
0.00169407867043527

> <i_epik_Tot_Q>
0

> <i_epik_Tot_abs_Q>
0

> <s_lp_Force_Field>
OPLS3e

> <r_lp_Energy>
16.229413

> <b_lp_Chiralities_Consistent>
1

> <s_lp_Variant>
Core,ligand-designer_replace-H2O_21-1

> <s_m_job_name>
ReplaceWaterV2_9

> <r_lp_tautomer_probability>
1

> <i_rge_num_r_groups>
1

> <r_rge_occupation_R1>
1

> <s_rge_R1>
ligand-designer_replace-H2O_21

> <s_rge_R1_s_m_title>
ligand-designer_replace-H2O_21

> <s_rge_R1_s_m_entry_id>
25690

> <s_rge_R1_s_m_entry_name>
ligand-designer_replace-H2O.smi-ligprep.30

> <s_rge_R1_s_m_smiles>
[*][C@H]1C[C@@H](C1)O

> <s_rge_R1_s_m_Source_File>
ligand-designer_replace-H2O.maegz-dedup.maegz-names.maegz

> <i_rge_R1_i_m_Source_File_Index>
22

> <s_rge_R1_s_m_Source_Path>
/Users/konze/projects/pathfinder/r-groups/final-r-groups

> <s_rge_R1_s_canvas_Unique_SMILES_Stereo>
O[C@H]1C[C@H](Cl)C1

> <s_rge_R1_s_st_Chirality_1>
2_ANS_1_3_6_8

> <i_rge_R1_i_lp_mmshare_version>
42013

> <i_rge_R1_i_f3d_flags>
0

> <s_rge_R1_s_st_Chirality_2>
4_ANR_3_5_6_11

> <i_rge_R1_i_m_stars>
0

> <s_rge_R1_s_m_subgroup_title>
ligand-designer_replace-H2O

> <s_rge_R1_s_m_subgroupid>
ligand-designer_replace-H2O.smi-ligprep111

> <b_rge_R1_b_m_subgroup_collapsed>
1

> <s_rge_R1_s_epik_input>
W09IXVtDQEBIXTFbQ0gyXVtDQEhdKENsKVtDSDJdMQ==

> <s_rge_R1_s_epik_cmdline>
J2VwaWtfcHl0aG9uJywgJy1waHQnLCAnMC43JywgJy1waCcsICc3LjAnLCAnLXRuJywgJzgnLCAnLW1hJywgJzIwMCcsICctaW1hZScsICc8aW5maWxlLm1hZT4nLCAnLW9tYWUnLCAnPG91dGZpbGUubWFlPic=

> <r_rge_R1_r_epik_Ionization_Penalty>
0

> <r_rge_R1_r_epik_Ionization_Penalty_Charging>
0

> <r_rge_R1_r_epik_Ionization_Penalty_Neutral>
0

> <r_rge_R1_r_epik_State_Penalty>
0

> <r_rge_R1_r_epik_Charging_Adjusted_Penalty>
0

> <i_rge_R1_i_epik_Tot_Q>
0

> <i_rge_R1_i_epik_Tot_abs_Q>
0

> <s_rge_R1_s_lp_Force_Field>
OPLS_2005

> <r_rge_R1_r_lp_Energy>
7.67779471957563

> <b_rge_R1_b_lp_Chiralities_Consistent>
1

> <s_rge_R1_s_lp_Variant>
Untitled_Molecule_000155-2

> <r_rge_R1_r_lp_tautomer_probability>
1

> <r_rge_R1_r_m_Shape_Sim>
0.71539709523224

> <s_m_subgroup_title>
ReplaceWaterV2_9-out1

> <s_m_subgroupid>
ReplaceWaterV2_9-out1

> <b_m_subgroup_collapsed>
0

$$$$
Core,ligand-designer_replace-H2O_22
                    3D
 Schrodinger Suite 2020-1.
 26 27  0  0  1  0            999 V2000
   -1.9264    1.3745   -0.0365 C   0  0  0  0  0  0
   -2.6674    2.5117   -0.0012 N   0  0  0  0  0  0
   -2.0056    3.6944    0.0602 C   0  0  0  0  0  0
   -0.6138    3.7831    0.0878 C   0  0  0  0  0  0
    0.1301    2.6022    0.0491 C   0  0  0  0  0  0
   -0.5284    1.3607   -0.0144 C   0  0  0  0  0  0
    0.0995    0.1314   -0.0562 O   0  0  0  0  0  0
    1.5232    0.0811   -0.0429 C   0  0  0  0  0  0
   -2.6145    4.5860    0.0879 H   0  0  0  0  0  0
   -0.1221    4.7433    0.1389 H   0  0  0  0  0  0
    1.2074    2.6685    0.0699 H   0  0  0  0  0  0
    1.9257    0.6231   -0.9007 H   0  0  0  0  0  0
    1.9068    0.5485    0.8660 H   0  0  0  0  0  0
   -2.4809    0.4488   -0.0843 H   0  0  0  0  0  0
    1.9650   -1.3885   -0.1010 C   0  0  0  0  0  0
    3.4947   -1.5581   -0.1253 C   0  0  2  0  0  0
    4.0227   -2.9766    0.1218 C   0  0  0  0  0  0
    4.6930   -2.4281    1.3859 C   0  0  0  0  0  0
    4.1153   -1.0761    1.1407 O   0  0  0  0  0  0
    1.5482   -1.9253    0.7526 H   0  0  0  0  0  0
    1.5429   -1.8594   -0.9895 H   0  0  0  0  0  0
    3.9433   -1.0266   -0.9664 H   0  0  0  0  0  0
    3.2530   -3.7265    0.3076 H   0  0  0  0  0  0
    4.7134   -3.3329   -0.6429 H   0  0  0  0  0  0
    4.3077   -2.8141    2.3306 H   0  0  0  0  0  0
    5.7816   -2.3634    1.3566 H   0  0  0  0  0  0
  1  2  1  0  0  0
  1  6  2  0  0  0
  1 14  1  0  0  0
  2  3  2  0  0  0
  3  4  1  0  0  0
  3  9  1  0  0  0
  4  5  2  0  0  0
  4 10  1  0  0  0
  5  6  1  0  0  0
  5 11  1  0  0  0
  6  7  1  0  0  0
  7  8  1  0  0  0
  8 12  1  0  0  0
  8 13  1  0  0  0
  8 15  1  0  0  0
 15 16  1  0  0  0
 15 20  1  0  0  0
 15 21  1  0  0  0
 16 19  1  0  0  0
 16 17  1  0  0  0
 16 22  1  0  0  0
 17 18  1  0  0  0
 17 23  1  0  0  0
 17 24  1  0  0  0
 18 19  1  0  0  0
 18 25  1  0  0  0
 18 26  1  0  0  0
M  END
> <i_m_ct_stereo_status>
1

> <i_m_stars>
0

> <s_m_entry_id>
18531

> <s_m_entry_name>
Structure11785

> <s_pdb_PDB_TITLE>
P38 KINASE CRYSTAL STRUCTURE IN COMPLEX WITH SMALL MOLECULE INHIBITOR

> <s_pdb_PDB_ID>
1W7H

> <i_pdb_PDB_Model>
1

> <r_pdb_PDB_CRYST1_a>
45.771

> <r_pdb_PDB_CRYST1_b>
87.101

> <r_pdb_PDB_CRYST1_c>
126.337

> <r_pdb_PDB_CRYST1_alpha>
90

> <r_pdb_PDB_CRYST1_beta>
90

> <r_pdb_PDB_CRYST1_gamma>
90

> <s_pdb_PDB_CRYST1_Space_Group>
P 21 21 21

> <i_pdb_PDB_CRYST1_z>
4

> <s_pdb_PDB_CLASSIFICATION>
TRANSFERASE

> <s_pdb_PDB_DEPOSITION_DATE>
02-SEP-04

> <s_pdb_PDB_format_version>
3.0

> <r_pdb_PDB_RESOLUTION>
2.21

> <s_pdb_PDB_EXPDTA>
X-RAY DIFFRACTION

> <r_pdb_PDB_EXPDTA_TEMPERATURE>
100

> <r_pdb_PDB_EXPDTA_PH>
7

> <s_pdb_PDB_REMARK_350_Biomolecule_1_Transform_1_Chains>
A

> <s_pdb_PDB_REMARK_350_Biomolecule_1_Transform_1_Matrix_1>
1.000000 0.000000 0.000000   0.000000;0.000000 1.000000 0.000000   0.000000;0.000000 0.000000 1.000000   0.000000

> <s_m_Source_Path>
/scratch/alberto/systems/Trials

> <s_m_Source_File>
1w7h_prep.pdb

> <i_m_Source_File_Index>
1

> <s_m_source_file>
ReplaceWaterV2_9.maegz

> <i_m_source_file_index>
23

> <i_lp_mmshare_version>
49012

> <i_f3d_flags>
0

> <s_epik_input>
W2NIXTFbY0hdW2NIXW5bY0hdYzFPW0NIMl1bQ0gyXVtDQEBIXTJbQ0gyXVtDSDJdTzI=

> <s_epik_cmdline>
J2VwaWtfcHl0aG9uJywgJy1waCcsICc3LjAnLCAnLXRuJywgJzgnLCAnLW1hJywgJzIwMCcsICctaW1hZScsICc8aW5maWxlLm1hZT4nLCAnLW9tYWUnLCAnPG91dGZpbGUubWFlPic=

> <r_epik_Ionization_Penalty>
  0.0024

> <r_epik_Ionization_Penalty_Charging>
  0.0000

> <r_epik_Ionization_Penalty_Neutral>
  0.0024

> <r_epik_State_Penalty>
  0.0016

> <r_epik_Charging_Adjusted_Penalty>
0.00164769884615855

> <i_epik_Tot_Q>
0

> <i_epik_Tot_abs_Q>
0

> <s_lp_Force_Field>
OPLS3e

> <r_lp_Energy>
12.805769

> <b_lp_Chiralities_Consistent>
1

> <s_lp_Variant>
Core,ligand-designer_replace-H2O_22-1

> <s_m_job_name>
ReplaceWaterV2_9

> <r_lp_tautomer_probability>
1

> <i_rge_num_r_groups>
1

> <r_rge_occupation_R1>
1

> <s_rge_R1>
ligand-designer_replace-H2O_22

> <s_rge_R1_s_m_title>
ligand-designer_replace-H2O_22

> <s_rge_R1_s_m_entry_id>
25691

> <s_rge_R1_s_m_entry_name>
ligand-designer_replace-H2O.smi-ligprep.35

> <s_rge_R1_s_m_smiles>
[*]C[C@@H]1CCO1

> <s_rge_R1_s_m_Source_File>
ligand-designer_replace-H2O.maegz-dedup.maegz-names.maegz

> <i_rge_R1_i_m_Source_File_Index>
23

> <s_rge_R1_s_m_Source_Path>
/Users/konze/projects/pathfinder/r-groups/final-r-groups

> <s_rge_R1_s_canvas_Unique_SMILES_Stereo>
ClC[C@@H]1CCO1

> <s_rge_R1_s_st_Chirality_1>
3_S_6_2_4_9

> <i_rge_R1_i_lp_mmshare_version>
42013

> <i_rge_R1_i_f3d_flags>
0

> <i_rge_R1_i_m_stars>
0

> <s_rge_R1_s_m_subgroup_title>
ligand-designer_replace-H2O

> <s_rge_R1_s_m_subgroupid>
ligand-designer_replace-H2O.smi-ligprep111

> <b_rge_R1_b_m_subgroup_collapsed>
1

> <s_rge_R1_s_epik_input>
Q2xbQ0gyXVtDQEBIXTFbQ0gyXVtDSDJdTzE=

> <s_rge_R1_s_epik_cmdline>
J2VwaWtfcHl0aG9uJywgJy1waHQnLCAnMC43JywgJy1waCcsICc3LjAnLCAnLXRuJywgJzgnLCAnLW1hJywgJzIwMCcsICctaW1hZScsICc8aW5maWxlLm1hZT4nLCAnLW9tYWUnLCAnPG91dGZpbGUubWFlPic=

> <r_rge_R1_r_epik_Ionization_Penalty>
0

> <r_rge_R1_r_epik_Ionization_Penalty_Charging>
0

> <r_rge_R1_r_epik_Ionization_Penalty_Neutral>
0

> <r_rge_R1_r_epik_State_Penalty>
0

> <r_rge_R1_r_epik_Charging_Adjusted_Penalty>
0

> <i_rge_R1_i_epik_Tot_Q>
0

> <i_rge_R1_i_epik_Tot_abs_Q>
0

> <s_rge_R1_s_lp_Force_Field>
OPLS_2005

> <r_rge_R1_r_lp_Energy>
6.29850765337587

> <b_rge_R1_b_lp_Chiralities_Consistent>
1

> <s_rge_R1_s_lp_Variant>
Untitled_Molecule_000159-1

> <r_rge_R1_r_lp_tautomer_probability>
1

> <r_rge_R1_r_m_Shape_Sim>
0.652967771957443

> <s_m_subgroup_title>
ReplaceWaterV2_9-out1

> <s_m_subgroupid>
ReplaceWaterV2_9-out1

> <b_m_subgroup_collapsed>
0

$$$$
Core,ligand-designer_replace-H2O_23
                    3D
 Schrodinger Suite 2020-1.
 26 27  0  0  1  0            999 V2000
   -1.9368    1.4024    0.1474 C   0  0  0  0  0  0
   -2.6674    2.5462    0.1073 N   0  0  0  0  0  0
   -1.9978    3.7178   -0.0316 C   0  0  0  0  0  0
   -0.6085    3.7890   -0.1331 C   0  0  0  0  0  0
    0.1246    2.6015   -0.0904 C   0  0  0  0  0  0
   -0.5421    1.3712    0.0536 C   0  0  0  0  0  0
    0.0744    0.1367    0.1100 O   0  0  0  0  0  0
    1.4947    0.0680    0.0229 C   0  0  0  0  0  0
   -2.5983    4.6151   -0.0611 H   0  0  0  0  0  0
   -0.1105    4.7412   -0.2420 H   0  0  0  0  0  0
    1.1999    2.6540   -0.1697 H   0  0  0  0  0  0
    1.8345    0.4969   -0.9218 H   0  0  0  0  0  0
    1.9490    0.6350    0.8378 H   0  0  0  0  0  0
   -2.4971    0.4858    0.2595 H   0  0  0  0  0  0
    1.9219   -1.4043    0.1115 C   0  0  0  0  0  0
    3.4485   -1.5938    0.0572 C   0  0  1  0  0  0
    3.9454   -3.0275   -0.1655 C   0  0  0  0  0  0
    4.5472   -2.5359   -1.4860 C   0  0  0  0  0  0
    4.0021   -1.1672   -1.2588 O   0  0  0  0  0  0
    1.5446   -1.8360    1.0392 H   0  0  0  0  0  0
    1.4515   -1.9664   -0.6967 H   0  0  0  0  0  0
    3.9498   -1.0375    0.8514 H   0  0  0  0  0  0
    4.6753   -3.3641    0.5714 H   0  0  0  0  0  0
    3.1580   -3.7737   -0.2782 H   0  0  0  0  0  0
    5.6364   -2.4862   -1.5227 H   0  0  0  0  0  0
    4.1021   -2.9509   -2.3913 H   0  0  0  0  0  0
  1  2  1  0  0  0
  1  6  2  0  0  0
  1 14  1  0  0  0
  2  3  2  0  0  0
  3  4  1  0  0  0
  3  9  1  0  0  0
  4  5  2  0  0  0
  4 10  1  0  0  0
  5  6  1  0  0  0
  5 11  1  0  0  0
  6  7  1  0  0  0
  7  8  1  0  0  0
  8 12  1  0  0  0
  8 13  1  0  0  0
  8 15  1  0  0  0
 15 16  1  0  0  0
 15 20  1  0  0  0
 15 21  1  0  0  0
 16 19  1  0  0  0
 16 17  1  0  0  0
 16 22  1  0  0  0
 17 18  1  0  0  0
 17 23  1  0  0  0
 17 24  1  0  0  0
 18 19  1  0  0  0
 18 25  1  0  0  0
 18 26  1  0  0  0
M  END
> <i_m_ct_stereo_status>
1

> <i_m_stars>
0

> <s_m_entry_id>
18532

> <s_m_entry_name>
Structure11785

> <s_pdb_PDB_TITLE>
P38 KINASE CRYSTAL STRUCTURE IN COMPLEX WITH SMALL MOLECULE INHIBITOR

> <s_pdb_PDB_ID>
1W7H

> <i_pdb_PDB_Model>
1

> <r_pdb_PDB_CRYST1_a>
45.771

> <r_pdb_PDB_CRYST1_b>
87.101

> <r_pdb_PDB_CRYST1_c>
126.337

> <r_pdb_PDB_CRYST1_alpha>
90

> <r_pdb_PDB_CRYST1_beta>
90

> <r_pdb_PDB_CRYST1_gamma>
90

> <s_pdb_PDB_CRYST1_Space_Group>
P 21 21 21

> <i_pdb_PDB_CRYST1_z>
4

> <s_pdb_PDB_CLASSIFICATION>
TRANSFERASE

> <s_pdb_PDB_DEPOSITION_DATE>
02-SEP-04

> <s_pdb_PDB_format_version>
3.0

> <r_pdb_PDB_RESOLUTION>
2.21

> <s_pdb_PDB_EXPDTA>
X-RAY DIFFRACTION

> <r_pdb_PDB_EXPDTA_TEMPERATURE>
100

> <r_pdb_PDB_EXPDTA_PH>
7

> <s_pdb_PDB_REMARK_350_Biomolecule_1_Transform_1_Chains>
A

> <s_pdb_PDB_REMARK_350_Biomolecule_1_Transform_1_Matrix_1>
1.000000 0.000000 0.000000   0.000000;0.000000 1.000000 0.000000   0.000000;0.000000 0.000000 1.000000   0.000000

> <s_m_Source_Path>
/scratch/alberto/systems/Trials

> <s_m_Source_File>
1w7h_prep.pdb

> <i_m_Source_File_Index>
1

> <s_m_source_file>
ReplaceWaterV2_9.maegz

> <i_m_source_file_index>
24

> <i_lp_mmshare_version>
49012

> <i_f3d_flags>
0

> <s_epik_input>
W2NIXTFbY0hdW2NIXW5bY0hdYzFPW0NIMl1bQ0gyXVtDQEhdMltDSDJdW0NIMl1PMg==

> <s_epik_cmdline>
J2VwaWtfcHl0aG9uJywgJy1waCcsICc3LjAnLCAnLXRuJywgJzgnLCAnLW1hJywgJzIwMCcsICctaW1hZScsICc8aW5maWxlLm1hZT4nLCAnLW9tYWUnLCAnPG91dGZpbGUubWFlPic=

> <r_epik_Ionization_Penalty>
  0.0024

> <r_epik_Ionization_Penalty_Charging>
  0.0000

> <r_epik_Ionization_Penalty_Neutral>
  0.0024

> <r_epik_State_Penalty>
  0.0016

> <r_epik_Charging_Adjusted_Penalty>
0.00164769884615855

> <i_epik_Tot_Q>
0

> <i_epik_Tot_abs_Q>
0

> <s_lp_Force_Field>
OPLS3e

> <r_lp_Energy>
12.80604

> <b_lp_Chiralities_Consistent>
1

> <s_lp_Variant>
Core,ligand-designer_replace-H2O_23-1

> <s_m_job_name>
ReplaceWaterV2_9

> <r_lp_tautomer_probability>
1

> <i_rge_num_r_groups>
1

> <r_rge_occupation_R1>
1

> <s_rge_R1>
ligand-designer_replace-H2O_23

> <s_rge_R1_s_m_title>
ligand-designer_replace-H2O_23

> <s_rge_R1_s_m_entry_id>
25692

> <s_rge_R1_s_m_entry_name>
ligand-designer_replace-H2O.smi-ligprep.36

> <s_rge_R1_s_m_smiles>
[*]C[C@H]1CCO1

> <s_rge_R1_s_m_Source_File>
ligand-designer_replace-H2O.maegz-dedup.maegz-names.maegz

> <i_rge_R1_i_m_Source_File_Index>
24

> <s_rge_R1_s_m_Source_Path>
/Users/konze/projects/pathfinder/r-groups/final-r-groups

> <s_rge_R1_s_canvas_Unique_SMILES_Stereo>
ClC[C@H]1CCO1

> <s_rge_R1_s_st_Chirality_1>
3_R_6_2_4_9

> <i_rge_R1_i_lp_mmshare_version>
42013

> <i_rge_R1_i_f3d_flags>
0

> <i_rge_R1_i_m_stars>
0

> <s_rge_R1_s_m_subgroup_title>
ligand-designer_replace-H2O

> <s_rge_R1_s_m_subgroupid>
ligand-designer_replace-H2O.smi-ligprep111

> <b_rge_R1_b_m_subgroup_collapsed>
1

> <s_rge_R1_s_epik_input>
Q2xbQ0gyXVtDQEBIXTFbQ0gyXVtDSDJdTzE=

> <s_rge_R1_s_epik_cmdline>
J2VwaWtfcHl0aG9uJywgJy1waHQnLCAnMC43JywgJy1waCcsICc3LjAnLCAnLXRuJywgJzgnLCAnLW1hJywgJzIwMCcsICctaW1hZScsICc8aW5maWxlLm1hZT4nLCAnLW9tYWUnLCAnPG91dGZpbGUubWFlPic=

> <r_rge_R1_r_epik_Ionization_Penalty>
0

> <r_rge_R1_r_epik_Ionization_Penalty_Charging>
0

> <r_rge_R1_r_epik_Ionization_Penalty_Neutral>
0

> <r_rge_R1_r_epik_State_Penalty>
0

> <r_rge_R1_r_epik_Charging_Adjusted_Penalty>
0

> <i_rge_R1_i_epik_Tot_Q>
0

> <i_rge_R1_i_epik_Tot_abs_Q>
0

> <s_rge_R1_s_lp_Force_Field>
OPLS_2005

> <r_rge_R1_r_lp_Energy>
6.29637926054299

> <b_rge_R1_b_lp_Chiralities_Consistent>
1

> <s_rge_R1_s_lp_Variant>
Untitled_Molecule_000159-2

> <r_rge_R1_r_lp_tautomer_probability>
1

> <r_rge_R1_r_m_Shape_Sim>
0.657082397970043

> <s_m_subgroup_title>
ReplaceWaterV2_9-out1

> <s_m_subgroupid>
ReplaceWaterV2_9-out1

> <b_m_subgroup_collapsed>
0

$$$$
Core,ligand-designer_replace-H2O_24
                    3D
 Schrodinger Suite 2020-1.
 26 27  0  0  1  0            999 V2000
   -1.9300    1.4136    0.0021 C   0  0  0  0  0  0
   -2.6385    2.5720   -0.0050 N   0  0  0  0  0  0
   -1.9430    3.7368   -0.0049 C   0  0  0  0  0  0
   -0.5490    3.7867    0.0031 C   0  0  0  0  0  0
    0.1610    2.5844    0.0107 C   0  0  0  0  0  0
   -0.5330    1.3609    0.0093 C   0  0  0  0  0  0
    0.0590    0.1135    0.0146 O   0  0  0  0  0  0
    1.4821    0.0200    0.0109 C   0  0  0  0  0  0
   -2.5262    4.6460   -0.0114 H   0  0  0  0  0  0
   -0.0298    4.7337    0.0037 H   0  0  0  0  0  0
    1.2398    2.6207    0.0178 H   0  0  0  0  0  0
    1.8948    0.5267   -0.8638 H   0  0  0  0  0  0
    1.8852    0.5193    0.8949 H   0  0  0  0  0  0
   -2.5108    0.5028    0.0011 H   0  0  0  0  0  0
    1.3838   -2.2099   -1.2465 C   0  0  0  0  0  0
    1.9088   -1.4649   -0.0014 C   0  0  0  0  0  0
    3.4100   -1.6729    0.2648 C   0  0  0  0  0  0
    3.1175   -2.2603    1.6030 O   0  0  0  0  0  0
    1.6538   -2.1931    1.3299 C   0  0  0  0  0  0
    1.7018   -3.2532   -1.2560 H   0  0  0  0  0  0
    1.7493   -1.7488   -2.1647 H   0  0  0  0  0  0
    0.2939   -2.2032   -1.2841 H   0  0  0  0  0  0
    3.9092   -2.4318   -0.3400 H   0  0  0  0  0  0
    4.0107   -0.7709    0.3922 H   0  0  0  0  0  0
    1.1682   -1.6115    2.1152 H   0  0  0  0  0  0
    1.2704   -3.2122    1.2585 H   0  0  0  0  0  0
  1  2  1  0  0  0
  1  6  2  0  0  0
  1 14  1  0  0  0
  2  3  2  0  0  0
  3  4  1  0  0  0
  3  9  1  0  0  0
  4  5  2  0  0  0
  4 10  1  0  0  0
  5  6  1  0  0  0
  5 11  1  0  0  0
  6  7  1  0  0  0
  7  8  1  0  0  0
  8 12  1  0  0  0
  8 13  1  0  0  0
  8 16  1  0  0  0
 15 16  1  0  0  0
 15 20  1  0  0  0
 15 21  1  0  0  0
 15 22  1  0  0  0
 16 19  1  0  0  0
 16 17  1  0  0  0
 17 18  1  0  0  0
 17 23  1  0  0  0
 17 24  1  0  0  0
 18 19  1  0  0  0
 19 25  1  0  0  0
 19 26  1  0  0  0
M  END
> <i_m_ct_stereo_status>
1

> <i_m_stars>
0

> <s_m_entry_id>
18533

> <s_m_entry_name>
Structure11785

> <s_pdb_PDB_TITLE>
P38 KINASE CRYSTAL STRUCTURE IN COMPLEX WITH SMALL MOLECULE INHIBITOR

> <s_pdb_PDB_ID>
1W7H

> <i_pdb_PDB_Model>
1

> <r_pdb_PDB_CRYST1_a>
45.771

> <r_pdb_PDB_CRYST1_b>
87.101

> <r_pdb_PDB_CRYST1_c>
126.337

> <r_pdb_PDB_CRYST1_alpha>
90

> <r_pdb_PDB_CRYST1_beta>
90

> <r_pdb_PDB_CRYST1_gamma>
90

> <s_pdb_PDB_CRYST1_Space_Group>
P 21 21 21

> <i_pdb_PDB_CRYST1_z>
4

> <s_pdb_PDB_CLASSIFICATION>
TRANSFERASE

> <s_pdb_PDB_DEPOSITION_DATE>
02-SEP-04

> <s_pdb_PDB_format_version>
3.0

> <r_pdb_PDB_RESOLUTION>
2.21

> <s_pdb_PDB_EXPDTA>
X-RAY DIFFRACTION

> <r_pdb_PDB_EXPDTA_TEMPERATURE>
100

> <r_pdb_PDB_EXPDTA_PH>
7

> <s_pdb_PDB_REMARK_350_Biomolecule_1_Transform_1_Chains>
A

> <s_pdb_PDB_REMARK_350_Biomolecule_1_Transform_1_Matrix_1>
1.000000 0.000000 0.000000   0.000000;0.000000 1.000000 0.000000   0.000000;0.000000 0.000000 1.000000   0.000000

> <s_m_Source_Path>
/scratch/alberto/systems/Trials

> <s_m_Source_File>
1w7h_prep.pdb

> <i_m_Source_File_Index>
1

> <s_m_source_file>
ReplaceWaterV2_9.maegz

> <i_m_source_file_index>
25

> <i_lp_mmshare_version>
49012

> <i_f3d_flags>
0

> <s_epik_input>
W2NIXTFbY0hdW2NIXW5bY0hdYzFPW0NIMl1DMihbQ0gzXSlbQ0gyXU9bQ0gyXTI=

> <s_epik_cmdline>
J2VwaWtfcHl0aG9uJywgJy1waCcsICc3LjAnLCAnLXRuJywgJzgnLCAnLW1hJywgJzIwMCcsICctaW1hZScsICc8aW5maWxlLm1hZT4nLCAnLW9tYWUnLCAnPG91dGZpbGUubWFlPic=

> <r_epik_Ionization_Penalty>
  0.0023

> <r_epik_Ionization_Penalty_Charging>
  0.0000

> <r_epik_Ionization_Penalty_Neutral>
  0.0023

> <r_epik_State_Penalty>
  0.0016

> <r_epik_Charging_Adjusted_Penalty>
0.00161743896696978

> <i_epik_Tot_Q>
0

> <i_epik_Tot_abs_Q>
0

> <s_lp_Force_Field>
OPLS3e

> <r_lp_Energy>
17.077226

> <b_lp_Chiralities_Consistent>
1

> <s_lp_Variant>
Core,ligand-designer_replace-H2O_24-1

> <s_m_job_name>
ReplaceWaterV2_9

> <r_lp_tautomer_probability>
1

> <i_rge_num_r_groups>
1

> <r_rge_occupation_R1>
1

> <s_rge_R1>
ligand-designer_replace-H2O_24

> <s_rge_R1_s_m_title>
ligand-designer_replace-H2O_24

> <s_rge_R1_s_m_entry_id>
25693

> <s_rge_R1_s_m_entry_name>
ligand-designer_replace-H2O.smi-ligprep.37

> <s_rge_R1_s_m_smiles>
[*]C1(C)COC1

> <s_rge_R1_s_m_Source_File>
ligand-designer_replace-H2O.maegz-dedup.maegz-names.maegz

> <i_rge_R1_i_m_Source_File_Index>
25

> <s_rge_R1_s_m_Source_Path>
/Users/konze/projects/pathfinder/r-groups/final-r-groups

> <s_rge_R1_s_canvas_Unique_SMILES_Stereo>
CC1(Cl)COC1

> <i_rge_R1_i_lp_mmshare_version>
42013

> <i_rge_R1_i_f3d_flags>
0

> <i_rge_R1_i_m_stars>
0

> <s_rge_R1_s_m_subgroup_title>
ligand-designer_replace-H2O

> <s_rge_R1_s_m_subgroupid>
ligand-designer_replace-H2O.smi-ligprep111

> <b_rge_R1_b_m_subgroup_collapsed>
1

> <s_rge_R1_s_epik_input>
W0NIM11DMShDbClbQ0gyXU9bQ0gyXTE=

> <s_rge_R1_s_epik_cmdline>
J2VwaWtfcHl0aG9uJywgJy1waHQnLCAnMC43JywgJy1waCcsICc3LjAnLCAnLXRuJywgJzgnLCAnLW1hJywgJzIwMCcsICctaW1hZScsICc8aW5maWxlLm1hZT4nLCAnLW9tYWUnLCAnPG91dGZpbGUubWFlPic=

> <r_rge_R1_r_epik_Ionization_Penalty>
0

> <r_rge_R1_r_epik_Ionization_Penalty_Charging>
0

> <r_rge_R1_r_epik_Ionization_Penalty_Neutral>
0

> <r_rge_R1_r_epik_State_Penalty>
0

> <r_rge_R1_r_epik_Charging_Adjusted_Penalty>
0

> <i_rge_R1_i_epik_Tot_Q>
0

> <i_rge_R1_i_epik_Tot_abs_Q>
0

> <s_rge_R1_s_lp_Force_Field>
OPLS_2005

> <r_rge_R1_r_lp_Energy>
6.17625219136907

> <b_rge_R1_b_lp_Chiralities_Consistent>
1

> <s_rge_R1_s_lp_Variant>
Untitled_Molecule_000160-1

> <r_rge_R1_r_lp_tautomer_probability>
1

> <r_rge_R1_r_m_Shape_Sim>
0.728289342532588

> <s_m_subgroup_title>
ReplaceWaterV2_9-out1

> <s_m_subgroupid>
ReplaceWaterV2_9-out1

> <b_m_subgroup_collapsed>
0

$$$$
Core,ligand-designer_replace-H2O_25
                    3D
 Schrodinger Suite 2020-1.
 26 27  0  0  1  0            999 V2000
   -1.9457    1.3791    0.0339 C   0  0  0  0  0  0
   -2.6901    2.5145    0.0259 N   0  0  0  0  0  0
   -2.0322    3.7003   -0.0123 C   0  0  0  0  0  0
   -0.6408    3.7939   -0.0438 C   0  0  0  0  0  0
    0.1068    2.6148   -0.0344 C   0  0  0  0  0  0
   -0.5478    1.3702    0.0059 C   0  0  0  0  0  0
    0.0836    0.1421    0.0201 O   0  0  0  0  0  0
    1.5070    0.0960   -0.0009 C   0  0  0  0  0  0
   -2.6436    4.5906   -0.0175 H   0  0  0  0  0  0
   -0.1526    4.7569   -0.0744 H   0  0  0  0  0  0
    1.1836    2.6849   -0.0581 H   0  0  0  0  0  0
    1.8833    0.5758   -0.9062 H   0  0  0  0  0  0
    1.9136    0.6287    0.8609 H   0  0  0  0  0  0
   -2.4972    0.4507    0.0640 H   0  0  0  0  0  0
    1.9527   -1.3738    0.0403 C   0  0  0  0  0  0
    3.4861   -1.5427    0.0432 C   0  0  0  0  0  0
    4.1707   -1.2651   -1.3034 C   0  0  0  0  0  0
    4.5488   -2.7002   -1.4362 O   0  0  0  0  0  0
    3.9629   -2.9948   -0.0983 C   0  0  0  0  0  0
    1.5445   -1.8403    0.9380 H   0  0  0  0  0  0
    1.5164   -1.9087   -0.8052 H   0  0  0  0  0  0
    3.9223   -1.0123    0.8909 H   0  0  0  0  0  0
    3.5175   -0.9961   -2.1351 H   0  0  0  0  0  0
    5.0808   -0.6653   -1.2580 H   0  0  0  0  0  0
    4.7650   -3.2984    0.5758 H   0  0  0  0  0  0
    3.1861   -3.7526   -0.2132 H   0  0  0  0  0  0
  1  2  1  0  0  0
  1  6  2  0  0  0
  1 14  1  0  0  0
  2  3  2  0  0  0
  3  4  1  0  0  0
  3  9  1  0  0  0
  4  5  2  0  0  0
  4 10  1  0  0  0
  5  6  1  0  0  0
  5 11  1  0  0  0
  6  7  1  0  0  0
  7  8  1  0  0  0
  8 12  1  0  0  0
  8 13  1  0  0  0
  8 15  1  0  0  0
 15 16  1  0  0  0
 15 20  1  0  0  0
 15 21  1  0  0  0
 16 19  1  0  0  0
 16 17  1  0  0  0
 16 22  1  0  0  0
 17 18  1  0  0  0
 17 23  1  0  0  0
 17 24  1  0  0  0
 18 19  1  0  0  0
 19 25  1  0  0  0
 19 26  1  0  0  0
M  END
> <i_m_ct_stereo_status>
1

> <i_m_stars>
0

> <s_m_entry_id>
18534

> <s_m_entry_name>
Structure11785

> <s_pdb_PDB_TITLE>
P38 KINASE CRYSTAL STRUCTURE IN COMPLEX WITH SMALL MOLECULE INHIBITOR

> <s_pdb_PDB_ID>
1W7H

> <i_pdb_PDB_Model>
1

> <r_pdb_PDB_CRYST1_a>
45.771

> <r_pdb_PDB_CRYST1_b>
87.101

> <r_pdb_PDB_CRYST1_c>
126.337

> <r_pdb_PDB_CRYST1_alpha>
90

> <r_pdb_PDB_CRYST1_beta>
90

> <r_pdb_PDB_CRYST1_gamma>
90

> <s_pdb_PDB_CRYST1_Space_Group>
P 21 21 21

> <i_pdb_PDB_CRYST1_z>
4

> <s_pdb_PDB_CLASSIFICATION>
TRANSFERASE

> <s_pdb_PDB_DEPOSITION_DATE>
02-SEP-04

> <s_pdb_PDB_format_version>
3.0

> <r_pdb_PDB_RESOLUTION>
2.21

> <s_pdb_PDB_EXPDTA>
X-RAY DIFFRACTION

> <r_pdb_PDB_EXPDTA_TEMPERATURE>
100

> <r_pdb_PDB_EXPDTA_PH>
7

> <s_pdb_PDB_REMARK_350_Biomolecule_1_Transform_1_Chains>
A

> <s_pdb_PDB_REMARK_350_Biomolecule_1_Transform_1_Matrix_1>
1.000000 0.000000 0.000000   0.000000;0.000000 1.000000 0.000000   0.000000;0.000000 0.000000 1.000000   0.000000

> <s_m_Source_Path>
/scratch/alberto/systems/Trials

> <s_m_Source_File>
1w7h_prep.pdb

> <i_m_Source_File_Index>
1

> <s_m_source_file>
ReplaceWaterV2_9.maegz

> <i_m_source_file_index>
26

> <i_lp_mmshare_version>
49012

> <i_f3d_flags>
0

> <s_epik_input>
W2NIXTFbY0hdW2NIXW5bY0hdYzFPW0NIMl1bQ0gyXVtDSF0yW0NIMl1PW0NIMl0y

> <s_epik_cmdline>
J2VwaWtfcHl0aG9uJywgJy1waCcsICc3LjAnLCAnLXRuJywgJzgnLCAnLW1hJywgJzIwMCcsICctaW1hZScsICc8aW5maWxlLm1hZT4nLCAnLW9tYWUnLCAnPG91dGZpbGUubWFlPic=

> <r_epik_Ionization_Penalty>
  0.0125

> <r_epik_Ionization_Penalty_Charging>
  0.0000

> <r_epik_Ionization_Penalty_Neutral>
  0.0125

> <r_epik_State_Penalty>
  0.0097

> <r_epik_Charging_Adjusted_Penalty>
0.00967834506372991

> <i_epik_Tot_Q>
0

> <i_epik_Tot_abs_Q>
0

> <s_lp_Force_Field>
OPLS3e

> <r_lp_Energy>
17.674027

> <b_lp_Chiralities_Consistent>
1

> <s_lp_Variant>
Core,ligand-designer_replace-H2O_25-1

> <s_m_job_name>
ReplaceWaterV2_9

> <r_lp_tautomer_probability>
1

> <i_rge_num_r_groups>
1

> <r_rge_occupation_R1>
1

> <s_rge_R1>
ligand-designer_replace-H2O_25

> <s_rge_R1_s_m_title>
ligand-designer_replace-H2O_25

> <s_rge_R1_s_m_entry_id>
25694

> <s_rge_R1_s_m_entry_name>
ligand-designer_replace-H2O.smi-ligprep.38

> <s_rge_R1_s_m_smiles>
[*]CC1COC1

> <s_rge_R1_s_m_Source_File>
ligand-designer_replace-H2O.maegz-dedup.maegz-names.maegz

> <i_rge_R1_i_m_Source_File_Index>
26

> <s_rge_R1_s_m_Source_Path>
/Users/konze/projects/pathfinder/r-groups/final-r-groups

> <s_rge_R1_s_canvas_Unique_SMILES_Stereo>
ClCC1COC1

> <i_rge_R1_i_lp_mmshare_version>
42013

> <i_rge_R1_i_f3d_flags>
0

> <i_rge_R1_i_m_stars>
0

> <s_rge_R1_s_m_subgroup_title>
ligand-designer_replace-H2O

> <s_rge_R1_s_m_subgroupid>
ligand-designer_replace-H2O.smi-ligprep111

> <b_rge_R1_b_m_subgroup_collapsed>
1

> <s_rge_R1_s_epik_input>
Q2xbQ0gyXVtDSF0xW0NIMl1PW0NIMl0x

> <s_rge_R1_s_epik_cmdline>
J2VwaWtfcHl0aG9uJywgJy1waHQnLCAnMC43JywgJy1waCcsICc3LjAnLCAnLXRuJywgJzgnLCAnLW1hJywgJzIwMCcsICctaW1hZScsICc8aW5maWxlLm1hZT4nLCAnLW9tYWUnLCAnPG91dGZpbGUubWFlPic=

> <r_rge_R1_r_epik_Ionization_Penalty>
0

> <r_rge_R1_r_epik_Ionization_Penalty_Charging>
0

> <r_rge_R1_r_epik_Ionization_Penalty_Neutral>
0

> <r_rge_R1_r_epik_State_Penalty>
0

> <r_rge_R1_r_epik_Charging_Adjusted_Penalty>
0

> <i_rge_R1_i_epik_Tot_Q>
0

> <i_rge_R1_i_epik_Tot_abs_Q>
0

> <s_rge_R1_s_lp_Force_Field>
OPLS_2005

> <r_rge_R1_r_lp_Energy>
6.46857264620493

> <b_rge_R1_b_lp_Chiralities_Consistent>
1

> <s_rge_R1_s_lp_Variant>
Untitled_Molecule_000161-1

> <r_rge_R1_r_lp_tautomer_probability>
1

> <r_rge_R1_r_m_Shape_Sim>
0.704379211714774

> <s_m_subgroup_title>
ReplaceWaterV2_9-out1

> <s_m_subgroupid>
ReplaceWaterV2_9-out1

> <b_m_subgroup_collapsed>
0

$$$$
Core,ligand-designer_replace-H2O_25
                    3D
 Schrodinger Suite 2020-1.
 27 28  0  0  1  0            999 V2000
    0.1322    2.6209   -0.0333 C   0  0  0  0  0  0
   -0.5776    3.7672   -0.0427 N   0  3  0  0  0  0
   -1.9242    3.8015   -0.0188 C   0  0  0  0  0  0
   -2.6377    2.6018    0.0177 C   0  0  0  0  0  0
   -1.9384    1.3911    0.0282 C   0  0  0  0  0  0
   -0.5379    1.3840    0.0031 C   0  0  0  0  0  0
    0.0894    0.1541    0.0162 O   0  0  0  0  0  0
    1.5134    0.1030   -0.0035 C   0  0  0  0  0  0
   -2.3763    4.7828   -0.0293 H   0  0  0  0  0  0
   -3.7179    2.6077    0.0378 H   0  0  0  0  0  0
   -2.4828    0.4582    0.0563 H   0  0  0  0  0  0
    1.8922    0.5820   -0.9082 H   0  0  0  0  0  0
    1.9211    0.6338    0.8590 H   0  0  0  0  0  0
    1.2046    2.7465   -0.0553 H   0  0  0  0  0  0
    1.9534   -1.3685    0.0366 C   0  0  0  0  0  0
    3.4860   -1.5452    0.0445 C   0  0  0  0  0  0
    4.1761   -1.2722   -1.3003 C   0  0  0  0  0  0
    4.5240   -2.7136   -1.4432 O   0  0  0  0  0  0
    3.9532   -3.0006   -0.0973 C   0  0  0  0  0  0
    1.5404   -1.8359    0.9317 H   0  0  0  0  0  0
    1.5181   -1.8999   -0.8118 H   0  0  0  0  0  0
    3.9224   -1.0179    0.8942 H   0  0  0  0  0  0
    3.5297   -0.9825   -2.1301 H   0  0  0  0  0  0
    5.0994   -0.6935   -1.2505 H   0  0  0  0  0  0
    4.7624   -3.3054    0.5677 H   0  0  0  0  0  0
    3.1712   -3.7549   -0.1987 H   0  0  0  0  0  0
   -0.0752    4.6436   -0.0682 H   0  0  0  0  0  0
  1  2  1  0  0  0
  1  6  2  0  0  0
  1 14  1  0  0  0
  2  3  2  0  0  0
  2 27  1  0  0  0
  3  4  1  0  0  0
  3  9  1  0  0  0
  4  5  2  0  0  0
  4 10  1  0  0  0
  5  6  1  0  0  0
  5 11  1  0  0  0
  6  7  1  0  0  0
  7  8  1  0  0  0
  8 12  1  0  0  0
  8 13  1  0  0  0
  8 15  1  0  0  0
 15 16  1  0  0  0
 15 20  1  0  0  0
 15 21  1  0  0  0
 16 19  1  0  0  0
 16 17  1  0  0  0
 16 22  1  0  0  0
 17 18  1  0  0  0
 17 23  1  0  0  0
 17 24  1  0  0  0
 18 19  1  0  0  0
 19 25  1  0  0  0
 19 26  1  0  0  0
M  CHG  1   2   1
M  END
> <i_m_ct_stereo_status>
1

> <i_m_stars>
0

> <s_m_entry_id>
18535

> <s_m_entry_name>
Structure11785

> <s_pdb_PDB_TITLE>
P38 KINASE CRYSTAL STRUCTURE IN COMPLEX WITH SMALL MOLECULE INHIBITOR

> <s_pdb_PDB_ID>
1W7H

> <i_pdb_PDB_Model>
1

> <r_pdb_PDB_CRYST1_a>
45.771

> <r_pdb_PDB_CRYST1_b>
87.101

> <r_pdb_PDB_CRYST1_c>
126.337

> <r_pdb_PDB_CRYST1_alpha>
90

> <r_pdb_PDB_CRYST1_beta>
90

> <r_pdb_PDB_CRYST1_gamma>
90

> <s_pdb_PDB_CRYST1_Space_Group>
P 21 21 21

> <i_pdb_PDB_CRYST1_z>
4

> <s_pdb_PDB_CLASSIFICATION>
TRANSFERASE

> <s_pdb_PDB_DEPOSITION_DATE>
02-SEP-04

> <s_pdb_PDB_format_version>
3.0

> <r_pdb_PDB_RESOLUTION>
2.21

> <s_pdb_PDB_EXPDTA>
X-RAY DIFFRACTION

> <r_pdb_PDB_EXPDTA_TEMPERATURE>
100

> <r_pdb_PDB_EXPDTA_PH>
7

> <s_pdb_PDB_REMARK_350_Biomolecule_1_Transform_1_Chains>
A

> <s_pdb_PDB_REMARK_350_Biomolecule_1_Transform_1_Matrix_1>
1.000000 0.000000 0.000000   0.000000;0.000000 1.000000 0.000000   0.000000;0.000000 0.000000 1.000000   0.000000

> <s_m_Source_Path>
/scratch/alberto/systems/Trials

> <s_m_Source_File>
1w7h_prep.pdb

> <i_m_Source_File_Index>
1

> <s_m_source_file>
ReplaceWaterV2_9.maegz

> <i_m_source_file_index>
26

> <i_lp_mmshare_version>
49012

> <i_f3d_flags>
0

> <s_epik_input>
W2NIXTFbY0hdW2NIXW5bY0hdYzFPW0NIMl1bQ0gyXVtDSF0yW0NIMl1PW0NIMl0y

> <s_epik_cmdline>
J2VwaWtfcHl0aG9uJywgJy1waCcsICc3LjAnLCAnLXRuJywgJzgnLCAnLW1hJywgJzIwMCcsICctaW1hZScsICc8aW5maWxlLm1hZT4nLCAnLW9tYWUnLCAnPG91dGZpbGUubWFlPic=

> <r_epik_Ionization_Penalty>
  2.2925

> <r_epik_Ionization_Penalty_Charging>
  2.2925

> <r_epik_Ionization_Penalty_Neutral>
  0.0000

> <r_epik_State_Penalty>
  2.4426

> <r_epik_Charging_Adjusted_Penalty>
4.73503475812192

> <i_epik_Tot_Q>
1

> <i_epik_Tot_abs_Q>
1

> <s_lp_Force_Field>
OPLS3e

> <r_lp_Energy>
22.013109

> <b_lp_Chiralities_Consistent>
1

> <s_lp_Variant>
Core,ligand-designer_replace-H2O_25-2

> <s_m_job_name>
ReplaceWaterV2_9

> <i_rge_num_r_groups>
1

> <r_rge_occupation_R1>
1

> <s_rge_R1>
ligand-designer_replace-H2O_25

> <s_rge_R1_s_m_title>
ligand-designer_replace-H2O_25

> <s_rge_R1_s_m_entry_id>
25694

> <s_rge_R1_s_m_entry_name>
ligand-designer_replace-H2O.smi-ligprep.38

> <s_rge_R1_s_m_smiles>
[*]CC1COC1

> <s_rge_R1_s_m_Source_File>
ligand-designer_replace-H2O.maegz-dedup.maegz-names.maegz

> <i_rge_R1_i_m_Source_File_Index>
26

> <s_rge_R1_s_m_Source_Path>
/Users/konze/projects/pathfinder/r-groups/final-r-groups

> <s_rge_R1_s_canvas_Unique_SMILES_Stereo>
ClCC1COC1

> <i_rge_R1_i_lp_mmshare_version>
42013

> <i_rge_R1_i_f3d_flags>
0

> <i_rge_R1_i_m_stars>
0

> <s_rge_R1_s_m_subgroup_title>
ligand-designer_replace-H2O

> <s_rge_R1_s_m_subgroupid>
ligand-designer_replace-H2O.smi-ligprep111

> <b_rge_R1_b_m_subgroup_collapsed>
1

> <s_rge_R1_s_epik_input>
Q2xbQ0gyXVtDSF0xW0NIMl1PW0NIMl0x

> <s_rge_R1_s_epik_cmdline>
J2VwaWtfcHl0aG9uJywgJy1waHQnLCAnMC43JywgJy1waCcsICc3LjAnLCAnLXRuJywgJzgnLCAnLW1hJywgJzIwMCcsICctaW1hZScsICc8aW5maWxlLm1hZT4nLCAnLW9tYWUnLCAnPG91dGZpbGUubWFlPic=

> <r_rge_R1_r_epik_Ionization_Penalty>
0

> <r_rge_R1_r_epik_Ionization_Penalty_Charging>
0

> <r_rge_R1_r_epik_Ionization_Penalty_Neutral>
0

> <r_rge_R1_r_epik_State_Penalty>
0

> <r_rge_R1_r_epik_Charging_Adjusted_Penalty>
0

> <i_rge_R1_i_epik_Tot_Q>
0

> <i_rge_R1_i_epik_Tot_abs_Q>
0

> <s_rge_R1_s_lp_Force_Field>
OPLS_2005

> <r_rge_R1_r_lp_Energy>
6.46857264620493

> <b_rge_R1_b_lp_Chiralities_Consistent>
1

> <s_rge_R1_s_lp_Variant>
Untitled_Molecule_000161-1

> <r_rge_R1_r_lp_tautomer_probability>
1

> <r_rge_R1_r_m_Shape_Sim>
0.704379211714774

> <s_m_subgroup_title>
ReplaceWaterV2_9-out1

> <s_m_subgroupid>
ReplaceWaterV2_9-out1

> <b_m_subgroup_collapsed>
0

$$$$
Core,ligand-designer_replace-H2O_26
                    3D
 Schrodinger Suite 2020-1.
 26 27  0  0  1  0            999 V2000
   -2.4031    2.6498   -0.0082 C   0  0  0  0  0  0
   -3.7223    2.9709    0.0076 N   0  0  0  0  0  0
   -4.6195    1.9534    0.0153 C   0  0  0  0  0  0
   -4.2420    0.6107    0.0068 C   0  0  0  0  0  0
   -2.8805    0.3013   -0.0095 C   0  0  0  0  0  0
   -1.9267    1.3353   -0.0166 C   0  0  0  0  0  0
   -0.5580    1.1514   -0.0309 O   0  0  0  0  0  0
   -0.0381   -0.1749   -0.0337 C   0  0  0  0  0  0
   -5.6629    2.2319    0.0283 H   0  0  0  0  0  0
   -4.9858   -0.1725    0.0125 H   0  0  0  0  0  0
   -2.5863   -0.7372   -0.0167 H   0  0  0  0  0  0
   -0.3810   -0.7148    0.8510 H   0  0  0  0  0  0
   -0.3880   -0.7116   -0.9175 H   0  0  0  0  0  0
   -1.7134    3.4810   -0.0134 H   0  0  0  0  0  0
    2.3098   -2.1855    1.3117 C   0  0  0  0  0  0
    3.5334   -1.6054    0.6307 C   0  0  0  0  0  0
    2.1766   -1.4883   -0.0213 C   0  0  0  0  0  0
    1.9057   -2.2813   -1.1580 O   0  0  0  0  0  0
    1.4974   -0.1039   -0.0344 C   0  0  0  0  0  0
    2.0148   -1.6911    2.2379 H   0  0  0  0  0  0
    2.3103   -3.2735    1.3851 H   0  0  0  0  0  0
    3.9901   -0.7570    1.1415 H   0  0  0  0  0  0
    4.2583   -2.3497    0.2994 H   0  0  0  0  0  0
    0.9952   -2.5815   -1.1102 H   0  0  0  0  0  0
    1.8344    0.4497   -0.9119 H   0  0  0  0  0  0
    1.8211    0.4804    0.8289 H   0  0  0  0  0  0
  1  2  1  0  0  0
  1  6  2  0  0  0
  1 14  1  0  0  0
  2  3  2  0  0  0
  3  4  1  0  0  0
  3  9  1  0  0  0
  4  5  2  0  0  0
  4 10  1  0  0  0
  5  6  1  0  0  0
  5 11  1  0  0  0
  6  7  1  0  0  0
  7  8  1  0  0  0
  8 12  1  0  0  0
  8 13  1  0  0  0
  8 19  1  0  0  0
 15 17  1  0  0  0
 15 16  1  0  0  0
 15 20  1  0  0  0
 15 21  1  0  0  0
 16 17  1  0  0  0
 16 22  1  0  0  0
 16 23  1  0  0  0
 17 18  1  0  0  0
 17 19  1  0  0  0
 18 24  1  0  0  0
 19 25  1  0  0  0
 19 26  1  0  0  0
M  END
> <i_m_ct_stereo_status>
1

> <i_m_stars>
0

> <s_m_entry_id>
18536

> <s_m_entry_name>
Structure11785

> <s_pdb_PDB_TITLE>
P38 KINASE CRYSTAL STRUCTURE IN COMPLEX WITH SMALL MOLECULE INHIBITOR

> <s_pdb_PDB_ID>
1W7H

> <i_pdb_PDB_Model>
1

> <r_pdb_PDB_CRYST1_a>
45.771

> <r_pdb_PDB_CRYST1_b>
87.101

> <r_pdb_PDB_CRYST1_c>
126.337

> <r_pdb_PDB_CRYST1_alpha>
90

> <r_pdb_PDB_CRYST1_beta>
90

> <r_pdb_PDB_CRYST1_gamma>
90

> <s_pdb_PDB_CRYST1_Space_Group>
P 21 21 21

> <i_pdb_PDB_CRYST1_z>
4

> <s_pdb_PDB_CLASSIFICATION>
TRANSFERASE

> <s_pdb_PDB_DEPOSITION_DATE>
02-SEP-04

> <s_pdb_PDB_format_version>
3.0

> <r_pdb_PDB_RESOLUTION>
2.21

> <s_pdb_PDB_EXPDTA>
X-RAY DIFFRACTION

> <r_pdb_PDB_EXPDTA_TEMPERATURE>
100

> <r_pdb_PDB_EXPDTA_PH>
7

> <s_pdb_PDB_REMARK_350_Biomolecule_1_Transform_1_Chains>
A

> <s_pdb_PDB_REMARK_350_Biomolecule_1_Transform_1_Matrix_1>
1.000000 0.000000 0.000000   0.000000;0.000000 1.000000 0.000000   0.000000;0.000000 0.000000 1.000000   0.000000

> <s_m_Source_Path>
/scratch/alberto/systems/Trials

> <s_m_Source_File>
1w7h_prep.pdb

> <i_m_Source_File_Index>
1

> <s_m_source_file>
ReplaceWaterV2_9.maegz

> <i_m_source_file_index>
27

> <i_lp_mmshare_version>
49012

> <i_f3d_flags>
0

> <s_epik_input>
W2NIXTFbY0hdW2NIXW5bY0hdYzFPW0NIMl1bQ0gyXUMyKFtPSF0pW0NIMl1bQ0gyXTI=

> <s_epik_cmdline>
J2VwaWtfcHl0aG9uJywgJy1waCcsICc3LjAnLCAnLXRuJywgJzgnLCAnLW1hJywgJzIwMCcsICctaW1hZScsICc8aW5maWxlLm1hZT4nLCAnLW9tYWUnLCAnPG91dGZpbGUubWFlPic=

> <r_epik_Ionization_Penalty>
  0.0024

> <r_epik_Ionization_Penalty_Charging>
  0.0000

> <r_epik_Ionization_Penalty_Neutral>
  0.0024

> <r_epik_State_Penalty>
  0.0017

> <r_epik_Charging_Adjusted_Penalty>
0.00167472762599403

> <i_epik_Tot_Q>
0

> <i_epik_Tot_abs_Q>
0

> <s_lp_Force_Field>
OPLS3e

> <r_lp_Energy>
26.602847

> <b_lp_Chiralities_Consistent>
1

> <s_lp_Variant>
Core,ligand-designer_replace-H2O_26-1

> <s_m_job_name>
ReplaceWaterV2_9

> <r_lp_tautomer_probability>
1

> <i_rge_num_r_groups>
1

> <r_rge_occupation_R1>
1

> <s_rge_R1>
ligand-designer_replace-H2O_26

> <s_rge_R1_s_m_title>
ligand-designer_replace-H2O_26

> <s_rge_R1_s_m_entry_id>
25695

> <s_rge_R1_s_m_entry_name>
ligand-designer_replace-H2O.smi-ligprep.39

> <s_rge_R1_s_m_smiles>
[*]CC1(O)CC1

> <s_rge_R1_s_m_Source_File>
ligand-designer_replace-H2O.maegz-dedup.maegz-names.maegz

> <i_rge_R1_i_m_Source_File_Index>
27

> <s_rge_R1_s_m_Source_Path>
/Users/konze/projects/pathfinder/r-groups/final-r-groups

> <s_rge_R1_s_canvas_Unique_SMILES_Stereo>
ClCC1(O)CC1

> <i_rge_R1_i_lp_mmshare_version>
42013

> <i_rge_R1_i_f3d_flags>
0

> <i_rge_R1_i_m_stars>
0

> <s_rge_R1_s_m_subgroup_title>
ligand-designer_replace-H2O

> <s_rge_R1_s_m_subgroupid>
ligand-designer_replace-H2O.smi-ligprep111

> <b_rge_R1_b_m_subgroup_collapsed>
1

> <s_rge_R1_s_epik_input>
W0NIMl0xW0NIMl1DMShbT0hdKVtDSDJdQ2w=

> <s_rge_R1_s_epik_cmdline>
J2VwaWtfcHl0aG9uJywgJy1waHQnLCAnMC43JywgJy1waCcsICc3LjAnLCAnLXRuJywgJzgnLCAnLW1hJywgJzIwMCcsICctaW1hZScsICc8aW5maWxlLm1hZT4nLCAnLW9tYWUnLCAnPG91dGZpbGUubWFlPic=

> <r_rge_R1_r_epik_Ionization_Penalty>
0

> <r_rge_R1_r_epik_Ionization_Penalty_Charging>
0

> <r_rge_R1_r_epik_Ionization_Penalty_Neutral>
0

> <r_rge_R1_r_epik_State_Penalty>
0

> <r_rge_R1_r_epik_Charging_Adjusted_Penalty>
0

> <i_rge_R1_i_epik_Tot_Q>
0

> <i_rge_R1_i_epik_Tot_abs_Q>
0

> <s_rge_R1_s_lp_Force_Field>
OPLS_2005

> <r_rge_R1_r_lp_Energy>
11.0680677113998

> <b_rge_R1_b_lp_Chiralities_Consistent>
1

> <s_rge_R1_s_lp_Variant>
Untitled_Molecule_000162-1

> <r_rge_R1_r_lp_tautomer_probability>
1

> <r_rge_R1_r_m_Shape_Sim>
0.667993974524792

> <s_m_subgroup_title>
ReplaceWaterV2_9-out1

> <s_m_subgroupid>
ReplaceWaterV2_9-out1

> <b_m_subgroup_collapsed>
0

$$$$
Core,ligand-designer_replace-H2O_27
                    3D
 Schrodinger Suite 2020-1.
 26 27  0  0  1  0            999 V2000
   -2.4451    2.6191    0.2252 C   0  0  0  0  0  0
   -3.7727    2.9038    0.2202 N   0  0  0  0  0  0
   -4.6388    1.8701    0.0719 C   0  0  0  0  0  0
   -4.2218    0.5472   -0.0740 C   0  0  0  0  0  0
   -2.8522    0.2754   -0.0666 C   0  0  0  0  0  0
   -1.9304    1.3267    0.0861 C   0  0  0  0  0  0
   -0.5578    1.1810    0.1108 O   0  0  0  0  0  0
    0.0067   -0.1178   -0.0477 C   0  0  0  0  0  0
   -5.6897    2.1190    0.0715 H   0  0  0  0  0  0
   -4.9421   -0.2493   -0.1893 H   0  0  0  0  0  0
   -2.5269   -0.7478   -0.1783 H   0  0  0  0  0  0
   -0.3344   -0.7603    0.7668 H   0  0  0  0  0  0
   -0.3266   -0.5720   -0.9826 H   0  0  0  0  0  0
   -1.7796    3.4614    0.3447 H   0  0  0  0  0  0
    1.8320    2.0045   -1.3902 O   0  0  0  0  0  0
    2.1953    0.6435   -1.2856 C   0  0  0  0  0  0
    1.5480   -0.0187   -0.0490 C   0  0  0  0  0  0
    2.2018    0.2674    1.2910 C   0  0  0  0  0  0
    2.3341   -1.0995    0.6697 C   0  0  0  0  0  0
    2.2445    2.3721   -2.1751 H   0  0  0  0  0  0
    1.8857    0.1295   -2.1961 H   0  0  0  0  0  0
    3.2841    0.5885   -1.2444 H   0  0  0  0  0  0
    3.0723    0.9237    1.3196 H   0  0  0  0  0  0
    1.5659    0.3937    2.1681 H   0  0  0  0  0  0
    1.7940   -1.9370    1.1125 H   0  0  0  0  0  0
    3.2990   -1.4048    0.2637 H   0  0  0  0  0  0
  1  2  1  0  0  0
  1  6  2  0  0  0
  1 14  1  0  0  0
  2  3  2  0  0  0
  3  4  1  0  0  0
  3  9  1  0  0  0
  4  5  2  0  0  0
  4 10  1  0  0  0
  5  6  1  0  0  0
  5 11  1  0  0  0
  6  7  1  0  0  0
  7  8  1  0  0  0
  8 12  1  0  0  0
  8 13  1  0  0  0
  8 17  1  0  0  0
 15 16  1  0  0  0
 15 20  1  0  0  0
 16 17  1  0  0  0
 16 21  1  0  0  0
 16 22  1  0  0  0
 17 19  1  0  0  0
 17 18  1  0  0  0
 18 19  1  0  0  0
 18 23  1  0  0  0
 18 24  1  0  0  0
 19 25  1  0  0  0
 19 26  1  0  0  0
M  END
> <i_m_ct_stereo_status>
1

> <i_m_stars>
0

> <s_m_entry_id>
18537

> <s_m_entry_name>
Structure11785

> <s_pdb_PDB_TITLE>
P38 KINASE CRYSTAL STRUCTURE IN COMPLEX WITH SMALL MOLECULE INHIBITOR

> <s_pdb_PDB_ID>
1W7H

> <i_pdb_PDB_Model>
1

> <r_pdb_PDB_CRYST1_a>
45.771

> <r_pdb_PDB_CRYST1_b>
87.101

> <r_pdb_PDB_CRYST1_c>
126.337

> <r_pdb_PDB_CRYST1_alpha>
90

> <r_pdb_PDB_CRYST1_beta>
90

> <r_pdb_PDB_CRYST1_gamma>
90

> <s_pdb_PDB_CRYST1_Space_Group>
P 21 21 21

> <i_pdb_PDB_CRYST1_z>
4

> <s_pdb_PDB_CLASSIFICATION>
TRANSFERASE

> <s_pdb_PDB_DEPOSITION_DATE>
02-SEP-04

> <s_pdb_PDB_format_version>
3.0

> <r_pdb_PDB_RESOLUTION>
2.21

> <s_pdb_PDB_EXPDTA>
X-RAY DIFFRACTION

> <r_pdb_PDB_EXPDTA_TEMPERATURE>
100

> <r_pdb_PDB_EXPDTA_PH>
7

> <s_pdb_PDB_REMARK_350_Biomolecule_1_Transform_1_Chains>
A

> <s_pdb_PDB_REMARK_350_Biomolecule_1_Transform_1_Matrix_1>
1.000000 0.000000 0.000000   0.000000;0.000000 1.000000 0.000000   0.000000;0.000000 0.000000 1.000000   0.000000

> <s_m_Source_Path>
/scratch/alberto/systems/Trials

> <s_m_Source_File>
1w7h_prep.pdb

> <i_m_Source_File_Index>
1

> <s_m_source_file>
ReplaceWaterV2_9.maegz

> <i_m_source_file_index>
28

> <i_lp_mmshare_version>
49012

> <i_f3d_flags>
0

> <s_epik_input>
W2NIXTFbY0hdW2NIXW5bY0hdYzFPW0NIMl1DMihbQ0gyXVtPSF0pW0NIMl1bQ0gyXTI=

> <s_epik_cmdline>
J2VwaWtfcHl0aG9uJywgJy1waCcsICc3LjAnLCAnLXRuJywgJzgnLCAnLW1hJywgJzIwMCcsICctaW1hZScsICc8aW5maWxlLm1hZT4nLCAnLW9tYWUnLCAnPG91dGZpbGUubWFlPic=

> <r_epik_Ionization_Penalty>
  0.0123

> <r_epik_Ionization_Penalty_Charging>
  0.0000

> <r_epik_Ionization_Penalty_Neutral>
  0.0123

> <r_epik_State_Penalty>
  0.0095

> <r_epik_Charging_Adjusted_Penalty>
0.00952515316588025

> <i_epik_Tot_Q>
0

> <i_epik_Tot_abs_Q>
0

> <s_lp_Force_Field>
OPLS3e

> <r_lp_Energy>
12.246612

> <b_lp_Chiralities_Consistent>
1

> <s_lp_Variant>
Core,ligand-designer_replace-H2O_27-1

> <s_m_job_name>
ReplaceWaterV2_9

> <r_lp_tautomer_probability>
1

> <i_rge_num_r_groups>
1

> <r_rge_occupation_R1>
1

> <s_rge_R1>
ligand-designer_replace-H2O_27

> <s_rge_R1_s_m_title>
ligand-designer_replace-H2O_27

> <s_rge_R1_s_m_entry_id>
25696

> <s_rge_R1_s_m_entry_name>
ligand-designer_replace-H2O.smi-ligprep.42

> <s_rge_R1_s_m_smiles>
OCC1([*])CC1

> <s_rge_R1_s_m_Source_File>
ligand-designer_replace-H2O.maegz-dedup.maegz-names.maegz

> <i_rge_R1_i_m_Source_File_Index>
28

> <s_rge_R1_s_m_Source_Path>
/Users/konze/projects/pathfinder/r-groups/final-r-groups

> <s_rge_R1_s_canvas_Unique_SMILES_Stereo>
OCC1(Cl)CC1

> <i_rge_R1_i_lp_mmshare_version>
42013

> <i_rge_R1_i_f3d_flags>
0

> <i_rge_R1_i_m_stars>
0

> <s_rge_R1_s_m_subgroup_title>
ligand-designer_replace-H2O

> <s_rge_R1_s_m_subgroupid>
ligand-designer_replace-H2O.smi-ligprep111

> <b_rge_R1_b_m_subgroup_collapsed>
1

> <s_rge_R1_s_epik_input>
W09IXVtDSDJdQzEoQ2wpW0NIMl1bQ0gyXTE=

> <s_rge_R1_s_epik_cmdline>
J2VwaWtfcHl0aG9uJywgJy1waHQnLCAnMC43JywgJy1waCcsICc3LjAnLCAnLXRuJywgJzgnLCAnLW1hJywgJzIwMCcsICctaW1hZScsICc8aW5maWxlLm1hZT4nLCAnLW9tYWUnLCAnPG91dGZpbGUubWFlPic=

> <r_rge_R1_r_epik_Ionization_Penalty>
0

> <r_rge_R1_r_epik_Ionization_Penalty_Charging>
0

> <r_rge_R1_r_epik_Ionization_Penalty_Neutral>
0

> <r_rge_R1_r_epik_State_Penalty>
0

> <r_rge_R1_r_epik_Charging_Adjusted_Penalty>
0

> <i_rge_R1_i_epik_Tot_Q>
0

> <i_rge_R1_i_epik_Tot_abs_Q>
0

> <s_rge_R1_s_lp_Force_Field>
OPLS_2005

> <r_rge_R1_r_lp_Energy>
11.9796407984831

> <b_rge_R1_b_lp_Chiralities_Consistent>
1

> <s_rge_R1_s_lp_Variant>
Untitled_Molecule_000166-1

> <r_rge_R1_r_lp_tautomer_probability>
1

> <r_rge_R1_r_m_Shape_Sim>
0.702909167571933

> <s_m_subgroup_title>
ReplaceWaterV2_9-out1

> <s_m_subgroupid>
ReplaceWaterV2_9-out1

> <b_m_subgroup_collapsed>
0

$$$$
Core,ligand-designer_replace-H2O_27
                    3D
 Schrodinger Suite 2020-1.
 27 28  0  0  1  0            999 V2000
   -2.8530    0.2995   -0.0042 C   0  0  0  0  0  0
   -4.1786    0.5455    0.0100 N   0  3  0  0  0  0
   -4.6984    1.7885    0.0056 C   0  0  0  0  0  0
   -3.8391    2.8888   -0.0147 C   0  0  0  0  0  0
   -2.4574    2.6759   -0.0304 C   0  0  0  0  0  0
   -1.9436    1.3731   -0.0248 C   0  0  0  0  0  0
   -0.5702    1.2356   -0.0401 O   0  0  0  0  0  0
   -0.0015   -0.0741   -0.0159 C   0  0  0  0  0  0
   -5.7765    1.8539    0.0186 H   0  0  0  0  0  0
   -4.2360    3.8936   -0.0181 H   0  0  0  0  0  0
   -1.7849    3.5216   -0.0456 H   0  0  0  0  0  0
   -0.3485   -0.6054    0.8720 H   0  0  0  0  0  0
   -0.3423   -0.6362   -0.8872 H   0  0  0  0  0  0
   -2.5817   -0.7457    0.0014 H   0  0  0  0  0  0
    1.9164   -2.1291    1.1749 O   0  0  0  0  0  0
    2.2432   -1.4164   -0.0002 C   0  0  0  0  0  0
    1.5465   -0.0394   -0.0162 C   0  0  0  0  0  0
    2.2560    1.0978   -0.7284 C   0  0  0  0  0  0
    2.2195    1.0658    0.7804 C   0  0  0  0  0  0
    2.3749   -2.9725    1.1587 H   0  0  0  0  0  0
    3.3287   -1.3198   -0.0517 H   0  0  0  0  0  0
    1.9359   -2.0076   -0.8631 H   0  0  0  0  0  0
    3.1976    0.8919   -1.2382 H   0  0  0  0  0  0
    1.6623    1.8433   -1.2581 H   0  0  0  0  0  0
    1.6021    1.7908    1.3116 H   0  0  0  0  0  0
    3.1353    0.8364    1.3262 H   0  0  0  0  0  0
   -4.8136   -0.2404    0.0243 H   0  0  0  0  0  0
  1  2  1  0  0  0
  1  6  2  0  0  0
  1 14  1  0  0  0
  2  3  2  0  0  0
  2 27  1  0  0  0
  3  4  1  0  0  0
  3  9  1  0  0  0
  4  5  2  0  0  0
  4 10  1  0  0  0
  5  6  1  0  0  0
  5 11  1  0  0  0
  6  7  1  0  0  0
  7  8  1  0  0  0
  8 12  1  0  0  0
  8 13  1  0  0  0
  8 17  1  0  0  0
 15 16  1  0  0  0
 15 20  1  0  0  0
 16 17  1  0  0  0
 16 21  1  0  0  0
 16 22  1  0  0  0
 17 19  1  0  0  0
 17 18  1  0  0  0
 18 19  1  0  0  0
 18 23  1  0  0  0
 18 24  1  0  0  0
 19 25  1  0  0  0
 19 26  1  0  0  0
M  CHG  1   2   1
M  END
> <i_m_ct_stereo_status>
1

> <i_m_stars>
0

> <s_m_entry_id>
18538

> <s_m_entry_name>
Structure11785

> <s_pdb_PDB_TITLE>
P38 KINASE CRYSTAL STRUCTURE IN COMPLEX WITH SMALL MOLECULE INHIBITOR

> <s_pdb_PDB_ID>
1W7H

> <i_pdb_PDB_Model>
1

> <r_pdb_PDB_CRYST1_a>
45.771

> <r_pdb_PDB_CRYST1_b>
87.101

> <r_pdb_PDB_CRYST1_c>
126.337

> <r_pdb_PDB_CRYST1_alpha>
90

> <r_pdb_PDB_CRYST1_beta>
90

> <r_pdb_PDB_CRYST1_gamma>
90

> <s_pdb_PDB_CRYST1_Space_Group>
P 21 21 21

> <i_pdb_PDB_CRYST1_z>
4

> <s_pdb_PDB_CLASSIFICATION>
TRANSFERASE

> <s_pdb_PDB_DEPOSITION_DATE>
02-SEP-04

> <s_pdb_PDB_format_version>
3.0

> <r_pdb_PDB_RESOLUTION>
2.21

> <s_pdb_PDB_EXPDTA>
X-RAY DIFFRACTION

> <r_pdb_PDB_EXPDTA_TEMPERATURE>
100

> <r_pdb_PDB_EXPDTA_PH>
7

> <s_pdb_PDB_REMARK_350_Biomolecule_1_Transform_1_Chains>
A

> <s_pdb_PDB_REMARK_350_Biomolecule_1_Transform_1_Matrix_1>
1.000000 0.000000 0.000000   0.000000;0.000000 1.000000 0.000000   0.000000;0.000000 0.000000 1.000000   0.000000

> <s_m_Source_Path>
/scratch/alberto/systems/Trials

> <s_m_Source_File>
1w7h_prep.pdb

> <i_m_Source_File_Index>
1

> <s_m_source_file>
ReplaceWaterV2_9.maegz

> <i_m_source_file_index>
28

> <i_lp_mmshare_version>
49012

> <i_f3d_flags>
0

> <s_epik_input>
W2NIXTFbY0hdW2NIXW5bY0hdYzFPW0NIMl1DMihbQ0gyXVtPSF0pW0NIMl1bQ0gyXTI=

> <s_epik_cmdline>
J2VwaWtfcHl0aG9uJywgJy1waCcsICc3LjAnLCAnLXRuJywgJzgnLCAnLW1hJywgJzIwMCcsICctaW1hZScsICc8aW5maWxlLm1hZT4nLCAnLW9tYWUnLCAnPG91dGZpbGUubWFlPic=

> <r_epik_Ionization_Penalty>
  2.3012

> <r_epik_Ionization_Penalty_Charging>
  2.3012

> <r_epik_Ionization_Penalty_Neutral>
  0.0000

> <r_epik_State_Penalty>
  2.4520

> <r_epik_Charging_Adjusted_Penalty>
4.75315716090753

> <i_epik_Tot_Q>
1

> <i_epik_Tot_abs_Q>
1

> <s_lp_Force_Field>
OPLS3e

> <r_lp_Energy>
14.742771

> <b_lp_Chiralities_Consistent>
1

> <s_lp_Variant>
Core,ligand-designer_replace-H2O_27-2

> <s_m_job_name>
ReplaceWaterV2_9

> <i_rge_num_r_groups>
1

> <r_rge_occupation_R1>
1

> <s_rge_R1>
ligand-designer_replace-H2O_27

> <s_rge_R1_s_m_title>
ligand-designer_replace-H2O_27

> <s_rge_R1_s_m_entry_id>
25696

> <s_rge_R1_s_m_entry_name>
ligand-designer_replace-H2O.smi-ligprep.42

> <s_rge_R1_s_m_smiles>
OCC1([*])CC1

> <s_rge_R1_s_m_Source_File>
ligand-designer_replace-H2O.maegz-dedup.maegz-names.maegz

> <i_rge_R1_i_m_Source_File_Index>
28

> <s_rge_R1_s_m_Source_Path>
/Users/konze/projects/pathfinder/r-groups/final-r-groups

> <s_rge_R1_s_canvas_Unique_SMILES_Stereo>
OCC1(Cl)CC1

> <i_rge_R1_i_lp_mmshare_version>
42013

> <i_rge_R1_i_f3d_flags>
0

> <i_rge_R1_i_m_stars>
0

> <s_rge_R1_s_m_subgroup_title>
ligand-designer_replace-H2O

> <s_rge_R1_s_m_subgroupid>
ligand-designer_replace-H2O.smi-ligprep111

> <b_rge_R1_b_m_subgroup_collapsed>
1

> <s_rge_R1_s_epik_input>
W09IXVtDSDJdQzEoQ2wpW0NIMl1bQ0gyXTE=

> <s_rge_R1_s_epik_cmdline>
J2VwaWtfcHl0aG9uJywgJy1waHQnLCAnMC43JywgJy1waCcsICc3LjAnLCAnLXRuJywgJzgnLCAnLW1hJywgJzIwMCcsICctaW1hZScsICc8aW5maWxlLm1hZT4nLCAnLW9tYWUnLCAnPG91dGZpbGUubWFlPic=

> <r_rge_R1_r_epik_Ionization_Penalty>
0

> <r_rge_R1_r_epik_Ionization_Penalty_Charging>
0

> <r_rge_R1_r_epik_Ionization_Penalty_Neutral>
0

> <r_rge_R1_r_epik_State_Penalty>
0

> <r_rge_R1_r_epik_Charging_Adjusted_Penalty>
0

> <i_rge_R1_i_epik_Tot_Q>
0

> <i_rge_R1_i_epik_Tot_abs_Q>
0

> <s_rge_R1_s_lp_Force_Field>
OPLS_2005

> <r_rge_R1_r_lp_Energy>
11.9796407984831

> <b_rge_R1_b_lp_Chiralities_Consistent>
1

> <s_rge_R1_s_lp_Variant>
Untitled_Molecule_000166-1

> <r_rge_R1_r_lp_tautomer_probability>
1

> <r_rge_R1_r_m_Shape_Sim>
0.702909167571933

> <s_m_subgroup_title>
ReplaceWaterV2_9-out1

> <s_m_subgroupid>
ReplaceWaterV2_9-out1

> <b_m_subgroup_collapsed>
0

$$$$
Core,ligand-designer_replace-H2O_28
                    3D
 Schrodinger Suite 2020-1.
 26 27  0  0  1  0            999 V2000
   -2.4769    2.7068    0.0838 C   0  0  0  0  0  0
   -3.8033    2.9966    0.0881 N   0  0  0  0  0  0
   -4.6761    1.9584    0.0580 C   0  0  0  0  0  0
   -4.2668    0.6253    0.0238 C   0  0  0  0  0  0
   -2.8983    0.3483    0.0189 C   0  0  0  0  0  0
   -1.9697    1.4044    0.0488 C   0  0  0  0  0  0
   -0.5971    1.2541    0.0458 O   0  0  0  0  0  0
   -0.0405   -0.0590   -0.0213 C   0  0  0  0  0  0
   -5.7260    2.2118    0.0617 H   0  0  0  0  0  0
   -4.9918   -0.1749    0.0014 H   0  0  0  0  0  0
   -2.5790   -0.6825   -0.0074 H   0  0  0  0  0  0
   -0.3802   -0.6464    0.8335 H   0  0  0  0  0  0
   -0.3957   -0.5551   -0.9256 H   0  0  0  0  0  0
   -1.8064    3.5532    0.1074 H   0  0  0  0  0  0
    2.0229   -2.1260   -1.0723 C   0  0  0  0  0  0
    2.1340   -1.3079    0.0843 O   0  0  0  0  0  0
    1.5075   -0.0344   -0.0245 C   0  0  0  0  0  0
    2.2261    1.0313   -0.8246 C   0  0  0  0  0  0
    2.2168    1.0958    0.6888 C   0  0  0  0  0  0
    2.5793   -3.0497   -0.9145 H   0  0  0  0  0  0
    2.4383   -1.6347   -1.9532 H   0  0  0  0  0  0
    0.9873   -2.3978   -1.2775 H   0  0  0  0  0  0
    3.1574    0.7725   -1.3286 H   0  0  0  0  0  0
    1.6401    1.7624   -1.3824 H   0  0  0  0  0  0
    1.6327    1.8770    1.1758 H   0  0  0  0  0  0
    3.1412    0.8772    1.2239 H   0  0  0  0  0  0
  1  2  1  0  0  0
  1  6  2  0  0  0
  1 14  1  0  0  0
  2  3  2  0  0  0
  3  4  1  0  0  0
  3  9  1  0  0  0
  4  5  2  0  0  0
  4 10  1  0  0  0
  5  6  1  0  0  0
  5 11  1  0  0  0
  6  7  1  0  0  0
  7  8  1  0  0  0
  8 12  1  0  0  0
  8 13  1  0  0  0
  8 17  1  0  0  0
 15 16  1  0  0  0
 15 20  1  0  0  0
 15 21  1  0  0  0
 15 22  1  0  0  0
 16 17  1  0  0  0
 17 19  1  0  0  0
 17 18  1  0  0  0
 18 19  1  0  0  0
 18 23  1  0  0  0
 18 24  1  0  0  0
 19 25  1  0  0  0
 19 26  1  0  0  0
M  END
> <i_m_ct_stereo_status>
1

> <i_m_stars>
0

> <s_m_entry_id>
18539

> <s_m_entry_name>
Structure11785

> <s_pdb_PDB_TITLE>
P38 KINASE CRYSTAL STRUCTURE IN COMPLEX WITH SMALL MOLECULE INHIBITOR

> <s_pdb_PDB_ID>
1W7H

> <i_pdb_PDB_Model>
1

> <r_pdb_PDB_CRYST1_a>
45.771

> <r_pdb_PDB_CRYST1_b>
87.101

> <r_pdb_PDB_CRYST1_c>
126.337

> <r_pdb_PDB_CRYST1_alpha>
90

> <r_pdb_PDB_CRYST1_beta>
90

> <r_pdb_PDB_CRYST1_gamma>
90

> <s_pdb_PDB_CRYST1_Space_Group>
P 21 21 21

> <i_pdb_PDB_CRYST1_z>
4

> <s_pdb_PDB_CLASSIFICATION>
TRANSFERASE

> <s_pdb_PDB_DEPOSITION_DATE>
02-SEP-04

> <s_pdb_PDB_format_version>
3.0

> <r_pdb_PDB_RESOLUTION>
2.21

> <s_pdb_PDB_EXPDTA>
X-RAY DIFFRACTION

> <r_pdb_PDB_EXPDTA_TEMPERATURE>
100

> <r_pdb_PDB_EXPDTA_PH>
7

> <s_pdb_PDB_REMARK_350_Biomolecule_1_Transform_1_Chains>
A

> <s_pdb_PDB_REMARK_350_Biomolecule_1_Transform_1_Matrix_1>
1.000000 0.000000 0.000000   0.000000;0.000000 1.000000 0.000000   0.000000;0.000000 0.000000 1.000000   0.000000

> <s_m_Source_Path>
/scratch/alberto/systems/Trials

> <s_m_Source_File>
1w7h_prep.pdb

> <i_m_Source_File_Index>
1

> <s_m_source_file>
ReplaceWaterV2_9.maegz

> <i_m_source_file_index>
29

> <i_lp_mmshare_version>
49012

> <i_f3d_flags>
0

> <s_epik_input>
W2NIXTFbY0hdW2NIXW5bY0hdYzFPW0NIMl1DMihPW0NIM10pW0NIMl1bQ0gyXTI=

> <s_epik_cmdline>
J2VwaWtfcHl0aG9uJywgJy1waCcsICc3LjAnLCAnLXRuJywgJzgnLCAnLW1hJywgJzIwMCcsICctaW1hZScsICc8aW5maWxlLm1hZT4nLCAnLW9tYWUnLCAnPG91dGZpbGUubWFlPic=

> <r_epik_Ionization_Penalty>
  0.0119

> <r_epik_Ionization_Penalty_Charging>
  0.0000

> <r_epik_Ionization_Penalty_Neutral>
  0.0119

> <r_epik_State_Penalty>
  0.0092

> <r_epik_Charging_Adjusted_Penalty>
0.00917847015766191

> <i_epik_Tot_Q>
0

> <i_epik_Tot_abs_Q>
0

> <s_lp_Force_Field>
OPLS3e

> <r_lp_Energy>
22.946517

> <b_lp_Chiralities_Consistent>
1

> <s_lp_Variant>
Core,ligand-designer_replace-H2O_28-1

> <s_m_job_name>
ReplaceWaterV2_9

> <r_lp_tautomer_probability>
1

> <i_rge_num_r_groups>
1

> <r_rge_occupation_R1>
1

> <s_rge_R1>
ligand-designer_replace-H2O_28

> <s_rge_R1_s_m_title>
ligand-designer_replace-H2O_28

> <s_rge_R1_s_m_entry_id>
25697

> <s_rge_R1_s_m_entry_name>
ligand-designer_replace-H2O.smi-ligprep.45

> <s_rge_R1_s_m_smiles>
C1CC1([*])OC

> <s_rge_R1_s_m_Source_File>
ligand-designer_replace-H2O.maegz-dedup.maegz-names.maegz

> <i_rge_R1_i_m_Source_File_Index>
29

> <s_rge_R1_s_m_Source_Path>
/Users/konze/projects/pathfinder/r-groups/final-r-groups

> <s_rge_R1_s_canvas_Unique_SMILES_Stereo>
COC1(Cl)CC1

> <i_rge_R1_i_lp_mmshare_version>
42013

> <i_rge_R1_i_f3d_flags>
0

> <i_rge_R1_i_m_stars>
0

> <s_rge_R1_s_m_subgroup_title>
ligand-designer_replace-H2O

> <s_rge_R1_s_m_subgroupid>
ligand-designer_replace-H2O.smi-ligprep111

> <b_rge_R1_b_m_subgroup_collapsed>
1

> <s_rge_R1_s_epik_input>
W0NIM11PQzEoQ2wpW0NIMl1bQ0gyXTE=

> <s_rge_R1_s_epik_cmdline>
J2VwaWtfcHl0aG9uJywgJy1waHQnLCAnMC43JywgJy1waCcsICc3LjAnLCAnLXRuJywgJzgnLCAnLW1hJywgJzIwMCcsICctaW1hZScsICc8aW5maWxlLm1hZT4nLCAnLW9tYWUnLCAnPG91dGZpbGUubWFlPic=

> <r_rge_R1_r_epik_Ionization_Penalty>
0

> <r_rge_R1_r_epik_Ionization_Penalty_Charging>
0

> <r_rge_R1_r_epik_Ionization_Penalty_Neutral>
0

> <r_rge_R1_r_epik_State_Penalty>
0

> <r_rge_R1_r_epik_Charging_Adjusted_Penalty>
0

> <i_rge_R1_i_epik_Tot_Q>
0

> <i_rge_R1_i_epik_Tot_abs_Q>
0

> <s_rge_R1_s_lp_Force_Field>
OPLS_2005

> <r_rge_R1_r_lp_Energy>
10.3482731228814

> <b_rge_R1_b_lp_Chiralities_Consistent>
1

> <s_rge_R1_s_lp_Variant>
Untitled_Molecule_000169-1

> <r_rge_R1_r_lp_tautomer_probability>
1

> <r_rge_R1_r_m_Shape_Sim>
0.723206932065564

> <s_m_subgroup_title>
ReplaceWaterV2_9-out1

> <s_m_subgroupid>
ReplaceWaterV2_9-out1

> <b_m_subgroup_collapsed>
0

$$$$
Core,ligand-designer_replace-H2O_28
                    3D
 Schrodinger Suite 2020-1.
 27 28  0  0  1  0            999 V2000
   -2.8918    0.3268   -0.0141 C   0  0  0  0  0  0
   -4.2160    0.5806   -0.0268 N   0  3  0  0  0  0
   -4.7281    1.8265   -0.0567 C   0  0  0  0  0  0
   -3.8618    2.9212   -0.0771 C   0  0  0  0  0  0
   -2.4812    2.7001   -0.0657 C   0  0  0  0  0  0
   -1.9756    1.3945   -0.0326 C   0  0  0  0  0  0
   -0.6029    1.2480   -0.0196 O   0  0  0  0  0  0
   -0.0431   -0.0648    0.0346 C   0  0  0  0  0  0
   -5.8061    1.8985   -0.0631 H   0  0  0  0  0  0
   -4.2524    3.9283   -0.1011 H   0  0  0  0  0  0
   -1.8032    3.5412   -0.0806 H   0  0  0  0  0  0
   -0.3924   -0.5686    0.9370 H   0  0  0  0  0  0
   -0.3856   -0.6473   -0.8223 H   0  0  0  0  0  0
   -2.6268   -0.7198    0.0101 H   0  0  0  0  0  0
    2.0419   -2.1279    1.0655 C   0  0  0  0  0  0
    2.1318   -1.3087   -0.0920 O   0  0  0  0  0  0
    1.5047   -0.0368    0.0274 C   0  0  0  0  0  0
    2.2063    1.0972   -0.6873 C   0  0  0  0  0  0
    2.2277    1.0275    0.8257 C   0  0  0  0  0  0
    2.5951   -3.0516    0.8964 H   0  0  0  0  0  0
    1.0102   -2.3999    1.2900 H   0  0  0  0  0  0
    2.4738   -1.6378    1.9391 H   0  0  0  0  0  0
    3.1275    0.8830   -1.2296 H   0  0  0  0  0  0
    1.6179    1.8799   -1.1667 H   0  0  0  0  0  0
    1.6457    1.7561    1.3907 H   0  0  0  0  0  0
    3.1638    0.7690    1.3212 H   0  0  0  0  0  0
   -4.8555   -0.2017   -0.0142 H   0  0  0  0  0  0
  1  2  1  0  0  0
  1  6  2  0  0  0
  1 14  1  0  0  0
  2  3  2  0  0  0
  2 27  1  0  0  0
  3  4  1  0  0  0
  3  9  1  0  0  0
  4  5  2  0  0  0
  4 10  1  0  0  0
  5  6  1  0  0  0
  5 11  1  0  0  0
  6  7  1  0  0  0
  7  8  1  0  0  0
  8 12  1  0  0  0
  8 13  1  0  0  0
  8 17  1  0  0  0
 15 16  1  0  0  0
 15 20  1  0  0  0
 15 21  1  0  0  0
 15 22  1  0  0  0
 16 17  1  0  0  0
 17 19  1  0  0  0
 17 18  1  0  0  0
 18 19  1  0  0  0
 18 23  1  0  0  0
 18 24  1  0  0  0
 19 25  1  0  0  0
 19 26  1  0  0  0
M  CHG  1   2   1
M  END
> <i_m_ct_stereo_status>
1

> <i_m_stars>
0

> <s_m_entry_id>
18540

> <s_m_entry_name>
Structure11785

> <s_pdb_PDB_TITLE>
P38 KINASE CRYSTAL STRUCTURE IN COMPLEX WITH SMALL MOLECULE INHIBITOR

> <s_pdb_PDB_ID>
1W7H

> <i_pdb_PDB_Model>
1

> <r_pdb_PDB_CRYST1_a>
45.771

> <r_pdb_PDB_CRYST1_b>
87.101

> <r_pdb_PDB_CRYST1_c>
126.337

> <r_pdb_PDB_CRYST1_alpha>
90

> <r_pdb_PDB_CRYST1_beta>
90

> <r_pdb_PDB_CRYST1_gamma>
90

> <s_pdb_PDB_CRYST1_Space_Group>
P 21 21 21

> <i_pdb_PDB_CRYST1_z>
4

> <s_pdb_PDB_CLASSIFICATION>
TRANSFERASE

> <s_pdb_PDB_DEPOSITION_DATE>
02-SEP-04

> <s_pdb_PDB_format_version>
3.0

> <r_pdb_PDB_RESOLUTION>
2.21

> <s_pdb_PDB_EXPDTA>
X-RAY DIFFRACTION

> <r_pdb_PDB_EXPDTA_TEMPERATURE>
100

> <r_pdb_PDB_EXPDTA_PH>
7

> <s_pdb_PDB_REMARK_350_Biomolecule_1_Transform_1_Chains>
A

> <s_pdb_PDB_REMARK_350_Biomolecule_1_Transform_1_Matrix_1>
1.000000 0.000000 0.000000   0.000000;0.000000 1.000000 0.000000   0.000000;0.000000 0.000000 1.000000   0.000000

> <s_m_Source_Path>
/scratch/alberto/systems/Trials

> <s_m_Source_File>
1w7h_prep.pdb

> <i_m_Source_File_Index>
1

> <s_m_source_file>
ReplaceWaterV2_9.maegz

> <i_m_source_file_index>
29

> <i_lp_mmshare_version>
49012

> <i_f3d_flags>
0

> <s_epik_input>
W2NIXTFbY0hdW2NIXW5bY0hdYzFPW0NIMl1DMihPW0NIM10pW0NIMl1bQ0gyXTI=

> <s_epik_cmdline>
J2VwaWtfcHl0aG9uJywgJy1waCcsICc3LjAnLCAnLXRuJywgJzgnLCAnLW1hJywgJzIwMCcsICctaW1hZScsICc8aW5maWxlLm1hZT4nLCAnLW9tYWUnLCAnPG91dGZpbGUubWFlPic=

> <r_epik_Ionization_Penalty>
  2.3215

> <r_epik_Ionization_Penalty_Charging>
  2.3215

> <r_epik_Ionization_Penalty_Neutral>
  0.0000

> <r_epik_State_Penalty>
  2.4737

> <r_epik_Charging_Adjusted_Penalty>
4.79528007431466

> <i_epik_Tot_Q>
1

> <i_epik_Tot_abs_Q>
1

> <s_lp_Force_Field>
OPLS3e

> <r_lp_Energy>
26.762789

> <b_lp_Chiralities_Consistent>
1

> <s_lp_Variant>
Core,ligand-designer_replace-H2O_28-2

> <s_m_job_name>
ReplaceWaterV2_9

> <i_rge_num_r_groups>
1

> <r_rge_occupation_R1>
1

> <s_rge_R1>
ligand-designer_replace-H2O_28

> <s_rge_R1_s_m_title>
ligand-designer_replace-H2O_28

> <s_rge_R1_s_m_entry_id>
25697

> <s_rge_R1_s_m_entry_name>
ligand-designer_replace-H2O.smi-ligprep.45

> <s_rge_R1_s_m_smiles>
C1CC1([*])OC

> <s_rge_R1_s_m_Source_File>
ligand-designer_replace-H2O.maegz-dedup.maegz-names.maegz

> <i_rge_R1_i_m_Source_File_Index>
29

> <s_rge_R1_s_m_Source_Path>
/Users/konze/projects/pathfinder/r-groups/final-r-groups

> <s_rge_R1_s_canvas_Unique_SMILES_Stereo>
COC1(Cl)CC1

> <i_rge_R1_i_lp_mmshare_version>
42013

> <i_rge_R1_i_f3d_flags>
0

> <i_rge_R1_i_m_stars>
0

> <s_rge_R1_s_m_subgroup_title>
ligand-designer_replace-H2O

> <s_rge_R1_s_m_subgroupid>
ligand-designer_replace-H2O.smi-ligprep111

> <b_rge_R1_b_m_subgroup_collapsed>
1

> <s_rge_R1_s_epik_input>
W0NIM11PQzEoQ2wpW0NIMl1bQ0gyXTE=

> <s_rge_R1_s_epik_cmdline>
J2VwaWtfcHl0aG9uJywgJy1waHQnLCAnMC43JywgJy1waCcsICc3LjAnLCAnLXRuJywgJzgnLCAnLW1hJywgJzIwMCcsICctaW1hZScsICc8aW5maWxlLm1hZT4nLCAnLW9tYWUnLCAnPG91dGZpbGUubWFlPic=

> <r_rge_R1_r_epik_Ionization_Penalty>
0

> <r_rge_R1_r_epik_Ionization_Penalty_Charging>
0

> <r_rge_R1_r_epik_Ionization_Penalty_Neutral>
0

> <r_rge_R1_r_epik_State_Penalty>
0

> <r_rge_R1_r_epik_Charging_Adjusted_Penalty>
0

> <i_rge_R1_i_epik_Tot_Q>
0

> <i_rge_R1_i_epik_Tot_abs_Q>
0

> <s_rge_R1_s_lp_Force_Field>
OPLS_2005

> <r_rge_R1_r_lp_Energy>
10.3482731228814

> <b_rge_R1_b_lp_Chiralities_Consistent>
1

> <s_rge_R1_s_lp_Variant>
Untitled_Molecule_000169-1

> <r_rge_R1_r_lp_tautomer_probability>
1

> <r_rge_R1_r_m_Shape_Sim>
0.723206932065564

> <s_m_subgroup_title>
ReplaceWaterV2_9-out1

> <s_m_subgroupid>
ReplaceWaterV2_9-out1

> <b_m_subgroup_collapsed>
0

$$$$
Core,ligand-designer_replace-H2O_29
                    3D
 Schrodinger Suite 2020-1.
 25 25  0  0  1  0            999 V2000
   -2.4556    2.7594   -0.0785 C   0  0  0  0  0  0
   -3.7087    3.2172    0.1740 N   0  0  0  0  0  0
   -4.6663    2.3034    0.4719 C   0  0  0  0  0  0
   -4.4141    0.9327    0.5280 C   0  0  0  0  0  0
   -3.1189    0.4820    0.2653 C   0  0  0  0  0  0
   -2.1050    1.4062   -0.0467 C   0  0  0  0  0  0
   -0.7920    1.0797   -0.3240 O   0  0  0  0  0  0
   -0.4001   -0.2898   -0.3009 C   0  0  0  0  0  0
   -5.6557    2.6892    0.6690 H   0  0  0  0  0  0
   -5.2030    0.2353    0.7687 H   0  0  0  0  0  0
   -2.9218   -0.5784    0.3081 H   0  0  0  0  0  0
   -0.5809   -0.7227    0.6854 H   0  0  0  0  0  0
   -0.9885   -0.8688   -1.0161 H   0  0  0  0  0  0
   -1.7152    3.5098   -0.3135 H   0  0  0  0  0  0
    3.6776   -3.1740   -1.2183 C   0  0  0  0  0  0
    2.9320   -1.9247   -1.1100 N   0  0  0  0  0  0
    1.6637   -1.8151   -0.6806 C   0  0  0  0  0  0
    0.9786   -2.7763   -0.3248 O   0  0  0  0  0  0
    1.0967   -0.3879   -0.6540 C   0  0  0  0  0  0
    3.8307   -3.4241   -2.2682 H   0  0  0  0  0  0
    3.1757   -4.0149   -0.7379 H   0  0  0  0  0  0
    4.6560   -3.0588   -0.7520 H   0  0  0  0  0  0
    3.4217   -1.0869   -1.3885 H   0  0  0  0  0  0
    1.2632    0.0840   -1.6237 H   0  0  0  0  0  0
    1.6700    0.2106    0.0551 H   0  0  0  0  0  0
  1  2  1  0  0  0
  1  6  2  0  0  0
  1 14  1  0  0  0
  2  3  2  0  0  0
  3  4  1  0  0  0
  3  9  1  0  0  0
  4  5  2  0  0  0
  4 10  1  0  0  0
  5  6  1  0  0  0
  5 11  1  0  0  0
  6  7  1  0  0  0
  7  8  1  0  0  0
  8 12  1  0  0  0
  8 13  1  0  0  0
  8 19  1  0  0  0
 15 16  1  0  0  0
 15 20  1  0  0  0
 15 21  1  0  0  0
 15 22  1  0  0  0
 16 17  1  0  0  0
 16 23  1  0  0  0
 17 18  2  0  0  0
 17 19  1  0  0  0
 19 24  1  0  0  0
 19 25  1  0  0  0
M  END
> <i_m_ct_stereo_status>
1

> <i_m_stars>
0

> <s_m_entry_id>
18541

> <s_m_entry_name>
Structure11785

> <s_pdb_PDB_TITLE>
P38 KINASE CRYSTAL STRUCTURE IN COMPLEX WITH SMALL MOLECULE INHIBITOR

> <s_pdb_PDB_ID>
1W7H

> <i_pdb_PDB_Model>
1

> <r_pdb_PDB_CRYST1_a>
45.771

> <r_pdb_PDB_CRYST1_b>
87.101

> <r_pdb_PDB_CRYST1_c>
126.337

> <r_pdb_PDB_CRYST1_alpha>
90

> <r_pdb_PDB_CRYST1_beta>
90

> <r_pdb_PDB_CRYST1_gamma>
90

> <s_pdb_PDB_CRYST1_Space_Group>
P 21 21 21

> <i_pdb_PDB_CRYST1_z>
4

> <s_pdb_PDB_CLASSIFICATION>
TRANSFERASE

> <s_pdb_PDB_DEPOSITION_DATE>
02-SEP-04

> <s_pdb_PDB_format_version>
3.0

> <r_pdb_PDB_RESOLUTION>
2.21

> <s_pdb_PDB_EXPDTA>
X-RAY DIFFRACTION

> <r_pdb_PDB_EXPDTA_TEMPERATURE>
100

> <r_pdb_PDB_EXPDTA_PH>
7

> <s_pdb_PDB_REMARK_350_Biomolecule_1_Transform_1_Chains>
A

> <s_pdb_PDB_REMARK_350_Biomolecule_1_Transform_1_Matrix_1>
1.000000 0.000000 0.000000   0.000000;0.000000 1.000000 0.000000   0.000000;0.000000 0.000000 1.000000   0.000000

> <s_m_Source_Path>
/scratch/alberto/systems/Trials

> <s_m_Source_File>
1w7h_prep.pdb

> <i_m_Source_File_Index>
1

> <s_m_source_file>
ReplaceWaterV2_9.maegz

> <i_m_source_file_index>
30

> <i_lp_mmshare_version>
49012

> <i_f3d_flags>
0

> <s_epik_input>
W2NIXTFbY0hdW2NIXW5bY0hdYzFPW0NIMl1bQ0gyXUMoPU8pW05IXVtDSDNd

> <s_epik_cmdline>
J2VwaWtfcHl0aG9uJywgJy1waCcsICc3LjAnLCAnLXRuJywgJzgnLCAnLW1hJywgJzIwMCcsICctaW1hZScsICc8aW5maWxlLm1hZT4nLCAnLW9tYWUnLCAnPG91dGZpbGUubWFlPic=

> <r_epik_Ionization_Penalty>
  0.0013

> <r_epik_Ionization_Penalty_Charging>
  0.0000

> <r_epik_Ionization_Penalty_Neutral>
  0.0013

> <r_epik_State_Penalty>
  0.0008

> <r_epik_Charging_Adjusted_Penalty>
0.000848845495071343

> <i_epik_Tot_Q>
0

> <i_epik_Tot_abs_Q>
0

> <s_lp_Force_Field>
OPLS3e

> <r_lp_Energy>
13.34613

> <b_lp_Chiralities_Consistent>
1

> <s_lp_Variant>
Core,ligand-designer_replace-H2O_29-1

> <s_m_job_name>
ReplaceWaterV2_9

> <r_lp_tautomer_probability>
1

> <i_rge_num_r_groups>
1

> <r_rge_occupation_R1>
1

> <s_rge_R1>
ligand-designer_replace-H2O_29

> <s_rge_R1_s_m_title>
ligand-designer_replace-H2O_29

> <s_rge_R1_s_m_entry_id>
25698

> <s_rge_R1_s_m_entry_name>
ligand-designer_replace-H2O.smi-ligprep.46

> <s_rge_R1_s_m_smiles>
[*]CC(=O)NC

> <s_rge_R1_s_m_Source_File>
ligand-designer_replace-H2O.maegz-dedup.maegz-names.maegz

> <i_rge_R1_i_m_Source_File_Index>
30

> <s_rge_R1_s_m_Source_Path>
/Users/konze/projects/pathfinder/r-groups/final-r-groups

> <s_rge_R1_s_canvas_Unique_SMILES_Stereo>
ClCC(=O)NC

> <i_rge_R1_i_lp_mmshare_version>
42013

> <i_rge_R1_i_f3d_flags>
0

> <i_rge_R1_i_m_stars>
0

> <s_rge_R1_s_m_subgroup_title>
ligand-designer_replace-H2O

> <s_rge_R1_s_m_subgroupid>
ligand-designer_replace-H2O.smi-ligprep111

> <b_rge_R1_b_m_subgroup_collapsed>
1

> <s_rge_R1_s_epik_input>
W0NIM11bTkhdQyg9TylbQ0gyXUNs

> <s_rge_R1_s_epik_cmdline>
J2VwaWtfcHl0aG9uJywgJy1waHQnLCAnMC43JywgJy1waCcsICc3LjAnLCAnLXRuJywgJzgnLCAnLW1hJywgJzIwMCcsICctaW1hZScsICc8aW5maWxlLm1hZT4nLCAnLW9tYWUnLCAnPG91dGZpbGUubWFlPic=

> <r_rge_R1_r_epik_Ionization_Penalty>
0

> <r_rge_R1_r_epik_Ionization_Penalty_Charging>
0

> <r_rge_R1_r_epik_Ionization_Penalty_Neutral>
0

> <r_rge_R1_r_epik_State_Penalty>
0

> <r_rge_R1_r_epik_Charging_Adjusted_Penalty>
0

> <i_rge_R1_i_epik_Tot_Q>
0

> <i_rge_R1_i_epik_Tot_abs_Q>
0

> <s_rge_R1_s_lp_Force_Field>
OPLS_2005

> <r_rge_R1_r_lp_Energy>
0.163697327088576

> <b_rge_R1_b_lp_Chiralities_Consistent>
1

> <s_rge_R1_s_lp_Variant>
Untitled_Molecule_000184-1

> <r_rge_R1_r_lp_tautomer_probability>
1

> <r_rge_R1_r_m_Shape_Sim>
0.36723209330084

> <s_m_subgroup_title>
ReplaceWaterV2_9-out1

> <s_m_subgroupid>
ReplaceWaterV2_9-out1

> <b_m_subgroup_collapsed>
0

$$$$
Core,ligand-designer_replace-H2O_30
                    3D
 Schrodinger Suite 2020-1.
 25 25  0  0  1  0            999 V2000
   -2.4195    2.6219    0.2024 C   0  0  0  0  0  0
   -3.7409    2.9285    0.1456 N   0  0  0  0  0  0
   -4.6201    1.9063   -0.0052 C   0  0  0  0  0  0
   -4.2220    0.5729   -0.1032 C   0  0  0  0  0  0
   -2.8585    0.2784   -0.0438 C   0  0  0  0  0  0
   -1.9236    1.3179    0.1121 C   0  0  0  0  0  0
   -0.5550    1.1487    0.1854 O   0  0  0  0  0  0
   -0.0108   -0.1300    0.0341 C   0  0  0  0  0  0
   -5.6661    2.1727   -0.0463 H   0  0  0  0  0  0
   -4.9521   -0.2142   -0.2210 H   0  0  0  0  0  0
   -2.5469   -0.7525   -0.1171 H   0  0  0  0  0  0
   -0.3515   -0.7604    0.8591 H   0  0  0  0  0  0
   -0.3209   -0.6045   -0.9000 H   0  0  0  0  0  0
   -1.7438    3.4560    0.3225 H   0  0  0  0  0  0
    1.4881    1.1223   -2.1840 C   0  0  0  0  0  0
    2.1668    0.4991   -0.9535 C   0  0  0  0  0  0
    3.3995    0.5043   -0.9503 O   0  0  0  0  0  0
    1.4264   -0.0165    0.0711 N   0  0  0  0  0  0
    2.1061   -0.5430    1.2629 C   0  0  0  0  0  0
    0.4070    1.0091   -2.2234 H   0  0  0  0  0  0
    1.8945    0.6754   -3.0913 H   0  0  0  0  0  0
    1.7056    2.1900   -2.2144 H   0  0  0  0  0  0
    3.1797   -0.3505    1.2836 H   0  0  0  0  0  0
    1.9613   -1.6219    1.3276 H   0  0  0  0  0  0
    1.6806   -0.0932    2.1606 H   0  0  0  0  0  0
  1  2  1  0  0  0
  1  6  2  0  0  0
  1 14  1  0  0  0
  2  3  2  0  0  0
  3  4  1  0  0  0
  3  9  1  0  0  0
  4  5  2  0  0  0
  4 10  1  0  0  0
  5  6  1  0  0  0
  5 11  1  0  0  0
  6  7  1  0  0  0
  7  8  1  0  0  0
  8 12  1  0  0  0
  8 13  1  0  0  0
  8 18  1  0  0  0
 15 16  1  0  0  0
 15 20  1  0  0  0
 15 21  1  0  0  0
 15 22  1  0  0  0
 16 17  2  0  0  0
 16 18  1  0  0  0
 18 19  1  0  0  0
 19 23  1  0  0  0
 19 24  1  0  0  0
 19 25  1  0  0  0
M  END
> <i_m_ct_stereo_status>
1

> <i_m_stars>
0

> <s_m_entry_id>
18542

> <s_m_entry_name>
Structure11785

> <s_pdb_PDB_TITLE>
P38 KINASE CRYSTAL STRUCTURE IN COMPLEX WITH SMALL MOLECULE INHIBITOR

> <s_pdb_PDB_ID>
1W7H

> <i_pdb_PDB_Model>
1

> <r_pdb_PDB_CRYST1_a>
45.771

> <r_pdb_PDB_CRYST1_b>
87.101

> <r_pdb_PDB_CRYST1_c>
126.337

> <r_pdb_PDB_CRYST1_alpha>
90

> <r_pdb_PDB_CRYST1_beta>
90

> <r_pdb_PDB_CRYST1_gamma>
90

> <s_pdb_PDB_CRYST1_Space_Group>
P 21 21 21

> <i_pdb_PDB_CRYST1_z>
4

> <s_pdb_PDB_CLASSIFICATION>
TRANSFERASE

> <s_pdb_PDB_DEPOSITION_DATE>
02-SEP-04

> <s_pdb_PDB_format_version>
3.0

> <r_pdb_PDB_RESOLUTION>
2.21

> <s_pdb_PDB_EXPDTA>
X-RAY DIFFRACTION

> <r_pdb_PDB_EXPDTA_TEMPERATURE>
100

> <r_pdb_PDB_EXPDTA_PH>
7

> <s_pdb_PDB_REMARK_350_Biomolecule_1_Transform_1_Chains>
A

> <s_pdb_PDB_REMARK_350_Biomolecule_1_Transform_1_Matrix_1>
1.000000 0.000000 0.000000   0.000000;0.000000 1.000000 0.000000   0.000000;0.000000 0.000000 1.000000   0.000000

> <s_m_Source_Path>
/scratch/alberto/systems/Trials

> <s_m_Source_File>
1w7h_prep.pdb

> <i_m_Source_File_Index>
1

> <s_m_source_file>
ReplaceWaterV2_9.maegz

> <i_m_source_file_index>
31

> <i_lp_mmshare_version>
49012

> <i_f3d_flags>
0

> <s_epik_input>
W2NIXTFbY0hdW2NIXW5bY0hdYzFPW0NIMl1OKFtDSDNdKUMoPU8pW0NIM10=

> <s_epik_cmdline>
J2VwaWtfcHl0aG9uJywgJy1waCcsICc3LjAnLCAnLXRuJywgJzgnLCAnLW1hJywgJzIwMCcsICctaW1hZScsICc8aW5maWxlLm1hZT4nLCAnLW9tYWUnLCAnPG91dGZpbGUubWFlPic=

> <r_epik_Ionization_Penalty>
  0.0030

> <r_epik_Ionization_Penalty_Charging>
  0.0000

> <r_epik_Ionization_Penalty_Neutral>
  0.0030

> <r_epik_State_Penalty>
  0.0021

> <r_epik_Charging_Adjusted_Penalty>
0.0020961863633629

> <i_epik_Tot_Q>
0

> <i_epik_Tot_abs_Q>
0

> <s_lp_Force_Field>
OPLS3e

> <r_lp_Energy>
24.530489

> <b_lp_Chiralities_Consistent>
1

> <s_lp_Variant>
Core,ligand-designer_replace-H2O_30-1

> <s_m_job_name>
ReplaceWaterV2_9

> <r_lp_tautomer_probability>
1

> <s_epik_Chemistry_Notes>
This compound contains an acetal/aminal-like group ( X-CH(R)-Y where X, Y are N, S, or O) that may be acid/base labile, releasing an aldehyde.

> <i_rge_num_r_groups>
1

> <r_rge_occupation_R1>
1

> <s_rge_R1>
ligand-designer_replace-H2O_30

> <s_rge_R1_s_m_title>
ligand-designer_replace-H2O_30

> <s_rge_R1_s_m_entry_id>
25699

> <s_rge_R1_s_m_entry_name>
ligand-designer_replace-H2O.smi-ligprep.47

> <s_rge_R1_s_m_smiles>
[*]N(C)C(=O)C

> <s_rge_R1_s_m_Source_File>
ligand-designer_replace-H2O.maegz-dedup.maegz-names.maegz

> <i_rge_R1_i_m_Source_File_Index>
31

> <s_rge_R1_s_m_Source_Path>
/Users/konze/projects/pathfinder/r-groups/final-r-groups

> <s_rge_R1_s_canvas_Unique_SMILES_Stereo>
CC(=O)N(Cl)C

> <i_rge_R1_i_lp_mmshare_version>
42013

> <i_rge_R1_i_f3d_flags>
0

> <i_rge_R1_i_m_stars>
0

> <s_rge_R1_s_m_subgroup_title>
ligand-designer_replace-H2O

> <s_rge_R1_s_m_subgroupid>
ligand-designer_replace-H2O.smi-ligprep111

> <b_rge_R1_b_m_subgroup_collapsed>
1

> <s_rge_R1_s_epik_input>
W0NIM11DKD1PKU4oQ2wpW0NIM10=

> <s_rge_R1_s_epik_cmdline>
J2VwaWtfcHl0aG9uJywgJy1waHQnLCAnMC43JywgJy1waCcsICc3LjAnLCAnLXRuJywgJzgnLCAnLW1hJywgJzIwMCcsICctaW1hZScsICc8aW5maWxlLm1hZT4nLCAnLW9tYWUnLCAnPG91dGZpbGUubWFlPic=

> <r_rge_R1_r_epik_Ionization_Penalty>
0

> <r_rge_R1_r_epik_Ionization_Penalty_Charging>
0

> <r_rge_R1_r_epik_Ionization_Penalty_Neutral>
0

> <r_rge_R1_r_epik_State_Penalty>
0

> <r_rge_R1_r_epik_Charging_Adjusted_Penalty>
0

> <i_rge_R1_i_epik_Tot_Q>
0

> <i_rge_R1_i_epik_Tot_abs_Q>
0

> <s_rge_R1_s_lp_Force_Field>
OPLS_2005

> <r_rge_R1_r_lp_Energy>
3.4264889373946

> <b_rge_R1_b_lp_Chiralities_Consistent>
1

> <s_rge_R1_s_lp_Variant>
Untitled_Molecule_000185-1

> <r_rge_R1_r_lp_tautomer_probability>
1

> <r_rge_R1_r_m_Shape_Sim>
0.409266738441869

> <s_m_subgroup_title>
ReplaceWaterV2_9-out1

> <s_m_subgroupid>
ReplaceWaterV2_9-out1

> <b_m_subgroup_collapsed>
0

$$$$
Core,ligand-designer_replace-H2O_31
                    3D
 Schrodinger Suite 2020-1.
 25 25  0  0  1  0            999 V2000
   -2.4542    2.6327    0.0185 C   0  0  0  0  0  0
   -3.7872    2.8898    0.0064 N   0  0  0  0  0  0
   -4.6342    1.8303   -0.0045 C   0  0  0  0  0  0
   -4.1924    0.5072   -0.0041 C   0  0  0  0  0  0
   -2.8176    0.2638    0.0087 C   0  0  0  0  0  0
   -1.9151    1.3427    0.0209 C   0  0  0  0  0  0
   -0.5394    1.2254    0.0362 O   0  0  0  0  0  0
    0.0457   -0.0751    0.0384 C   0  0  0  0  0  0
   -5.6899    2.0580   -0.0138 H   0  0  0  0  0  0
   -4.8976   -0.3107   -0.0136 H   0  0  0  0  0  0
   -2.4733   -0.7592    0.0090 H   0  0  0  0  0  0
   -0.2718   -0.6304    0.9226 H   0  0  0  0  0  0
   -0.2799   -0.6351   -0.8403 H   0  0  0  0  0  0
   -1.8052    3.4961    0.0270 H   0  0  0  0  0  0
    2.7936    1.1097   -3.4529 C   0  0  0  0  0  0
    2.2244    0.2071   -2.3632 C   0  0  0  0  0  0
    1.8947   -0.9465   -2.6383 O   0  0  0  0  0  0
    2.1145    0.7444   -1.1363 N   0  0  0  0  0  0
    1.5799    0.0534    0.0377 C   0  0  0  0  0  0
    3.0098    2.1096   -3.0751 H   0  0  0  0  0  0
    2.0813    1.2018   -4.2729 H   0  0  0  0  0  0
    3.7173    0.6861   -3.8476 H   0  0  0  0  0  0
    2.4134    1.6985   -0.9966 H   0  0  0  0  0  0
    1.8862    0.6305    0.9108 H   0  0  0  0  0  0
    2.0439   -0.9287    0.1470 H   0  0  0  0  0  0
  1  2  1  0  0  0
  1  6  2  0  0  0
  1 14  1  0  0  0
  2  3  2  0  0  0
  3  4  1  0  0  0
  3  9  1  0  0  0
  4  5  2  0  0  0
  4 10  1  0  0  0
  5  6  1  0  0  0
  5 11  1  0  0  0
  6  7  1  0  0  0
  7  8  1  0  0  0
  8 12  1  0  0  0
  8 13  1  0  0  0
  8 19  1  0  0  0
 15 16  1  0  0  0
 15 20  1  0  0  0
 15 21  1  0  0  0
 15 22  1  0  0  0
 16 17  2  0  0  0
 16 18  1  0  0  0
 18 19  1  0  0  0
 18 23  1  0  0  0
 19 24  1  0  0  0
 19 25  1  0  0  0
M  END
> <i_m_ct_stereo_status>
1

> <i_m_stars>
0

> <s_m_entry_id>
18543

> <s_m_entry_name>
Structure11785

> <s_pdb_PDB_TITLE>
P38 KINASE CRYSTAL STRUCTURE IN COMPLEX WITH SMALL MOLECULE INHIBITOR

> <s_pdb_PDB_ID>
1W7H

> <i_pdb_PDB_Model>
1

> <r_pdb_PDB_CRYST1_a>
45.771

> <r_pdb_PDB_CRYST1_b>
87.101

> <r_pdb_PDB_CRYST1_c>
126.337

> <r_pdb_PDB_CRYST1_alpha>
90

> <r_pdb_PDB_CRYST1_beta>
90

> <r_pdb_PDB_CRYST1_gamma>
90

> <s_pdb_PDB_CRYST1_Space_Group>
P 21 21 21

> <i_pdb_PDB_CRYST1_z>
4

> <s_pdb_PDB_CLASSIFICATION>
TRANSFERASE

> <s_pdb_PDB_DEPOSITION_DATE>
02-SEP-04

> <s_pdb_PDB_format_version>
3.0

> <r_pdb_PDB_RESOLUTION>
2.21

> <s_pdb_PDB_EXPDTA>
X-RAY DIFFRACTION

> <r_pdb_PDB_EXPDTA_TEMPERATURE>
100

> <r_pdb_PDB_EXPDTA_PH>
7

> <s_pdb_PDB_REMARK_350_Biomolecule_1_Transform_1_Chains>
A

> <s_pdb_PDB_REMARK_350_Biomolecule_1_Transform_1_Matrix_1>
1.000000 0.000000 0.000000   0.000000;0.000000 1.000000 0.000000   0.000000;0.000000 0.000000 1.000000   0.000000

> <s_m_Source_Path>
/scratch/alberto/systems/Trials

> <s_m_Source_File>
1w7h_prep.pdb

> <i_m_Source_File_Index>
1

> <s_m_source_file>
ReplaceWaterV2_9.maegz

> <i_m_source_file_index>
32

> <i_lp_mmshare_version>
49012

> <i_f3d_flags>
0

> <s_epik_input>
W2NIXTFbY0hdW2NIXW5bY0hdYzFPW0NIMl1bQ0gyXVtOSF1DKD1PKVtDSDNd

> <s_epik_cmdline>
J2VwaWtfcHl0aG9uJywgJy1waCcsICc3LjAnLCAnLXRuJywgJzgnLCAnLW1hJywgJzIwMCcsICctaW1hZScsICc8aW5maWxlLm1hZT4nLCAnLW9tYWUnLCAnPG91dGZpbGUubWFlPic=

> <r_epik_Ionization_Penalty>
  0.0015

> <r_epik_Ionization_Penalty_Charging>
  0.0000

> <r_epik_Ionization_Penalty_Neutral>
  0.0015

> <r_epik_State_Penalty>
  0.0010

> <r_epik_Charging_Adjusted_Penalty>
0.00099230012169079

> <i_epik_Tot_Q>
0

> <i_epik_Tot_abs_Q>
0

> <s_lp_Force_Field>
OPLS3e

> <r_lp_Energy>
11.184368

> <b_lp_Chiralities_Consistent>
1

> <s_lp_Variant>
Core,ligand-designer_replace-H2O_31-1

> <s_m_job_name>
ReplaceWaterV2_9

> <r_lp_tautomer_probability>
1

> <i_rge_num_r_groups>
1

> <r_rge_occupation_R1>
1

> <s_rge_R1>
ligand-designer_replace-H2O_31

> <s_rge_R1_s_m_title>
ligand-designer_replace-H2O_31

> <s_rge_R1_s_m_entry_id>
25700

> <s_rge_R1_s_m_entry_name>
ligand-designer_replace-H2O.smi-ligprep.48

> <s_rge_R1_s_m_smiles>
[*]CNC(=O)C

> <s_rge_R1_s_m_Source_File>
ligand-designer_replace-H2O.maegz-dedup.maegz-names.maegz

> <i_rge_R1_i_m_Source_File_Index>
32

> <s_rge_R1_s_m_Source_Path>
/Users/konze/projects/pathfinder/r-groups/final-r-groups

> <s_rge_R1_s_canvas_Unique_SMILES_Stereo>
CC(=O)NCCl

> <i_rge_R1_i_lp_mmshare_version>
42013

> <i_rge_R1_i_f3d_flags>
0

> <i_rge_R1_i_m_stars>
0

> <s_rge_R1_s_m_subgroup_title>
ligand-designer_replace-H2O

> <s_rge_R1_s_m_subgroupid>
ligand-designer_replace-H2O.smi-ligprep111

> <b_rge_R1_b_m_subgroup_collapsed>
1

> <s_rge_R1_s_epik_input>
W0NIM11DKD1PKVtOSF1bQ0gyXUNs

> <s_rge_R1_s_epik_cmdline>
J2VwaWtfcHl0aG9uJywgJy1waHQnLCAnMC43JywgJy1waCcsICc3LjAnLCAnLXRuJywgJzgnLCAnLW1hJywgJzIwMCcsICctaW1hZScsICc8aW5maWxlLm1hZT4nLCAnLW9tYWUnLCAnPG91dGZpbGUubWFlPic=

> <r_rge_R1_r_epik_Ionization_Penalty>
0

> <r_rge_R1_r_epik_Ionization_Penalty_Charging>
0

> <r_rge_R1_r_epik_Ionization_Penalty_Neutral>
0

> <r_rge_R1_r_epik_State_Penalty>
0

> <r_rge_R1_r_epik_Charging_Adjusted_Penalty>
0

> <i_rge_R1_i_epik_Tot_Q>
0

> <i_rge_R1_i_epik_Tot_abs_Q>
0

> <s_rge_R1_s_lp_Force_Field>
OPLS_2005

> <r_rge_R1_r_lp_Energy>
-1.27173328332937

> <b_rge_R1_b_lp_Chiralities_Consistent>
1

> <s_rge_R1_s_lp_Variant>
Untitled_Molecule_000186-1

> <r_rge_R1_r_lp_tautomer_probability>
1

> <r_rge_R1_r_m_Shape_Sim>
0.362233675132638

> <s_m_subgroup_title>
ReplaceWaterV2_9-out1

> <s_m_subgroupid>
ReplaceWaterV2_9-out1

> <b_m_subgroup_collapsed>
0

$$$$
Core,ligand-designer_replace-H2O_32
                    3D
 Schrodinger Suite 2020-1.
 25 25  0  0  1  0            999 V2000
   -2.4078    2.7027   -0.0000 C   0  0  0  0  0  0
   -3.7203    3.0503   -0.0000 N   0  0  0  0  0  0
   -4.6377    2.0508   -0.0000 C   0  0  0  0  0  0
   -4.2871    0.7006    0.0000 C   0  0  0  0  0  0
   -2.9320    0.3640    0.0000 C   0  0  0  0  0  0
   -1.9581    1.3789   -0.0000 C   0  0  0  0  0  0
   -0.5935    1.1671   -0.0000 O   0  0  0  0  0  0
   -0.1003   -0.1736    0.0000 C   0  0  0  0  0  0
   -5.6756    2.3499   -0.0000 H   0  0  0  0  0  0
   -5.0465   -0.0674    0.0000 H   0  0  0  0  0  0
   -2.6580   -0.6801    0.0000 H   0  0  0  0  0  0
   -0.4502   -0.7020    0.8889 H   0  0  0  0  0  0
   -0.4502   -0.7020   -0.8889 H   0  0  0  0  0  0
   -1.7008    3.5193   -0.0000 H   0  0  0  0  0  0
    3.5685   -1.4293   -0.0000 C   0  0  0  0  0  0
    2.1051   -1.3520   -0.0000 N   0  0  0  0  0  0
    1.4611   -2.6684    0.0000 C   0  0  0  0  0  0
    1.4421   -0.1660   -0.0000 C   0  0  0  0  0  0
    2.0337    0.9171   -0.0000 O   0  0  0  0  0  0
    4.0525   -0.4516   -0.0000 H   0  0  0  0  0  0
    3.9157   -1.9686   -0.8820 H   0  0  0  0  0  0
    3.9157   -1.9686    0.8820 H   0  0  0  0  0  0
    0.3726   -2.6338    0.0000 H   0  0  0  0  0  0
    1.7691   -3.2328    0.8808 H   0  0  0  0  0  0
    1.7691   -3.2328   -0.8808 H   0  0  0  0  0  0
  1  2  1  0  0  0
  1  6  2  0  0  0
  1 14  1  0  0  0
  2  3  2  0  0  0
  3  4  1  0  0  0
  3  9  1  0  0  0
  4  5  2  0  0  0
  4 10  1  0  0  0
  5  6  1  0  0  0
  5 11  1  0  0  0
  6  7  1  0  0  0
  7  8  1  0  0  0
  8 12  1  0  0  0
  8 13  1  0  0  0
  8 18  1  0  0  0
 15 16  1  0  0  0
 15 20  1  0  0  0
 15 21  1  0  0  0
 15 22  1  0  0  0
 16 17  1  0  0  0
 16 18  1  0  0  0
 17 23  1  0  0  0
 17 24  1  0  0  0
 17 25  1  0  0  0
 18 19  2  0  0  0
M  END
> <i_m_ct_stereo_status>
1

> <i_m_stars>
0

> <s_m_entry_id>
18544

> <s_m_entry_name>
Structure11785

> <s_pdb_PDB_TITLE>
P38 KINASE CRYSTAL STRUCTURE IN COMPLEX WITH SMALL MOLECULE INHIBITOR

> <s_pdb_PDB_ID>
1W7H

> <i_pdb_PDB_Model>
1

> <r_pdb_PDB_CRYST1_a>
45.771

> <r_pdb_PDB_CRYST1_b>
87.101

> <r_pdb_PDB_CRYST1_c>
126.337

> <r_pdb_PDB_CRYST1_alpha>
90

> <r_pdb_PDB_CRYST1_beta>
90

> <r_pdb_PDB_CRYST1_gamma>
90

> <s_pdb_PDB_CRYST1_Space_Group>
P 21 21 21

> <i_pdb_PDB_CRYST1_z>
4

> <s_pdb_PDB_CLASSIFICATION>
TRANSFERASE

> <s_pdb_PDB_DEPOSITION_DATE>
02-SEP-04

> <s_pdb_PDB_format_version>
3.0

> <r_pdb_PDB_RESOLUTION>
2.21

> <s_pdb_PDB_EXPDTA>
X-RAY DIFFRACTION

> <r_pdb_PDB_EXPDTA_TEMPERATURE>
100

> <r_pdb_PDB_EXPDTA_PH>
7

> <s_pdb_PDB_REMARK_350_Biomolecule_1_Transform_1_Chains>
A

> <s_pdb_PDB_REMARK_350_Biomolecule_1_Transform_1_Matrix_1>
1.000000 0.000000 0.000000   0.000000;0.000000 1.000000 0.000000   0.000000;0.000000 0.000000 1.000000   0.000000

> <s_m_Source_Path>
/scratch/alberto/systems/Trials

> <s_m_Source_File>
1w7h_prep.pdb

> <i_m_Source_File_Index>
1

> <s_m_source_file>
ReplaceWaterV2_9.maegz

> <i_m_source_file_index>
33

> <i_lp_mmshare_version>
49012

> <i_f3d_flags>
0

> <s_epik_input>
W2NIXTFbY0hdW2NIXW5bY0hdYzFPW0NIMl1DKD1PKU4oW0NIM10pW0NIM10=

> <s_epik_cmdline>
J2VwaWtfcHl0aG9uJywgJy1waCcsICc3LjAnLCAnLXRuJywgJzgnLCAnLW1hJywgJzIwMCcsICctaW1hZScsICc8aW5maWxlLm1hZT4nLCAnLW9tYWUnLCAnPG91dGZpbGUubWFlPic=

> <r_epik_Ionization_Penalty>
  0.0022

> <r_epik_Ionization_Penalty_Charging>
  0.0000

> <r_epik_Ionization_Penalty_Neutral>
  0.0022

> <r_epik_State_Penalty>
  0.0015

> <r_epik_Charging_Adjusted_Penalty>
0.00151810518336946

> <i_epik_Tot_Q>
0

> <i_epik_Tot_abs_Q>
0

> <s_lp_Force_Field>
OPLS3e

> <r_lp_Energy>
22.51804

> <b_lp_Chiralities_Consistent>
1

> <s_lp_Variant>
Core,ligand-designer_replace-H2O_32-1

> <s_m_job_name>
ReplaceWaterV2_9

> <r_lp_tautomer_probability>
1

> <i_rge_num_r_groups>
1

> <r_rge_occupation_R1>
1

> <s_rge_R1>
ligand-designer_replace-H2O_32

> <s_rge_R1_s_m_title>
ligand-designer_replace-H2O_32

> <s_rge_R1_s_m_entry_id>
25701

> <s_rge_R1_s_m_entry_name>
ligand-designer_replace-H2O.smi-ligprep.49

> <s_rge_R1_s_m_smiles>
[*]C(=O)N(C)C

> <s_rge_R1_s_m_Source_File>
ligand-designer_replace-H2O.maegz-dedup.maegz-names.maegz

> <i_rge_R1_i_m_Source_File_Index>
33

> <s_rge_R1_s_m_Source_Path>
/Users/konze/projects/pathfinder/r-groups/final-r-groups

> <s_rge_R1_s_canvas_Unique_SMILES_Stereo>
O=C(Cl)N(C)C

> <i_rge_R1_i_lp_mmshare_version>
42013

> <i_rge_R1_i_f3d_flags>
0

> <i_rge_R1_i_m_stars>
0

> <s_rge_R1_s_m_subgroup_title>
ligand-designer_replace-H2O

> <s_rge_R1_s_m_subgroupid>
ligand-designer_replace-H2O.smi-ligprep111

> <b_rge_R1_b_m_subgroup_collapsed>
1

> <s_rge_R1_s_epik_input>
W0NIM11OKFtDSDNdKUMoPU8pQ2w=

> <s_rge_R1_s_epik_cmdline>
J2VwaWtfcHl0aG9uJywgJy1waHQnLCAnMC43JywgJy1waCcsICc3LjAnLCAnLXRuJywgJzgnLCAnLW1hJywgJzIwMCcsICctaW1hZScsICc8aW5maWxlLm1hZT4nLCAnLW9tYWUnLCAnPG91dGZpbGUubWFlPic=

> <r_rge_R1_r_epik_Ionization_Penalty>
0

> <r_rge_R1_r_epik_Ionization_Penalty_Charging>
0

> <r_rge_R1_r_epik_Ionization_Penalty_Neutral>
0

> <r_rge_R1_r_epik_State_Penalty>
0

> <r_rge_R1_r_epik_Charging_Adjusted_Penalty>
0

> <i_rge_R1_i_epik_Tot_Q>
0

> <i_rge_R1_i_epik_Tot_abs_Q>
0

> <s_rge_R1_s_lp_Force_Field>
OPLS_2005

> <r_rge_R1_r_lp_Energy>
4.51659030010708

> <b_rge_R1_b_lp_Chiralities_Consistent>
1

> <s_rge_R1_s_lp_Variant>
Untitled_Molecule_000192-1

> <r_rge_R1_r_lp_tautomer_probability>
1

> <r_rge_R1_r_m_Shape_Sim>
0.498057375185545

> <s_m_subgroup_title>
ReplaceWaterV2_9-out1

> <s_m_subgroupid>
ReplaceWaterV2_9-out1

> <b_m_subgroup_collapsed>
0

$$$$
Core,ligand-designer_replace-H2O_33
                    3D
 Schrodinger Suite 2020-1.
 25 25  0  0  1  0            999 V2000
   -2.4362    2.6567   -0.0774 C   0  0  0  0  0  0
   -3.7639    2.9406   -0.0833 N   0  0  0  0  0  0
   -4.6319    1.8997   -0.0232 C   0  0  0  0  0  0
   -4.2166    0.5696    0.0440 C   0  0  0  0  0  0
   -2.8467    0.2989    0.0495 C   0  0  0  0  0  0
   -1.9230    1.3580   -0.0129 C   0  0  0  0  0  0
   -0.5499    1.2142   -0.0151 O   0  0  0  0  0  0
    0.0128   -0.0974    0.0312 C   0  0  0  0  0  0
   -5.6830    2.1483   -0.0297 H   0  0  0  0  0  0
   -4.9382   -0.2326    0.0912 H   0  0  0  0  0  0
   -2.5226   -0.7294    0.1022 H   0  0  0  0  0  0
   -0.3025   -0.5949    0.9506 H   0  0  0  0  0  0
   -0.3597   -0.6938   -0.8047 H   0  0  0  0  0  0
   -1.7694    3.5050   -0.1273 H   0  0  0  0  0  0
    2.8002    1.8961   -0.8926 N   0  0  0  0  0  0
    2.0788    0.8116   -1.1885 C   0  0  0  0  0  0
    1.8320    0.4966   -2.3514 O   0  0  0  0  0  0
    1.5582   -0.0412   -0.0138 C   0  0  2  0  0  0
    2.1686   -1.4578   -0.0451 C   0  0  0  0  0  0
    3.1575    2.4819   -1.6332 H   0  0  0  0  0  0
    2.9858    2.1413    0.0688 H   0  0  0  0  0  0
    1.8857    0.4220    0.9192 H   0  0  0  0  0  0
    3.2587   -1.4248   -0.0133 H   0  0  0  0  0  0
    1.8841   -2.0028   -0.9467 H   0  0  0  0  0  0
    1.8396   -2.0464    0.8123 H   0  0  0  0  0  0
  1  2  1  0  0  0
  1  6  2  0  0  0
  1 14  1  0  0  0
  2  3  2  0  0  0
  3  4  1  0  0  0
  3  9  1  0  0  0
  4  5  2  0  0  0
  4 10  1  0  0  0
  5  6  1  0  0  0
  5 11  1  0  0  0
  6  7  1  0  0  0
  7  8  1  0  0  0
  8 12  1  0  0  0
  8 13  1  0  0  0
  8 18  1  0  0  0
 15 16  1  0  0  0
 15 20  1  0  0  0
 15 21  1  0  0  0
 16 17  2  0  0  0
 16 18  1  0  0  0
 18 19  1  0  0  0
 18 22  1  0  0  0
 19 23  1  0  0  0
 19 24  1  0  0  0
 19 25  1  0  0  0
M  END
> <i_m_ct_stereo_status>
1

> <i_m_stars>
0

> <s_m_entry_id>
18545

> <s_m_entry_name>
Structure11785

> <s_pdb_PDB_TITLE>
P38 KINASE CRYSTAL STRUCTURE IN COMPLEX WITH SMALL MOLECULE INHIBITOR

> <s_pdb_PDB_ID>
1W7H

> <i_pdb_PDB_Model>
1

> <r_pdb_PDB_CRYST1_a>
45.771

> <r_pdb_PDB_CRYST1_b>
87.101

> <r_pdb_PDB_CRYST1_c>
126.337

> <r_pdb_PDB_CRYST1_alpha>
90

> <r_pdb_PDB_CRYST1_beta>
90

> <r_pdb_PDB_CRYST1_gamma>
90

> <s_pdb_PDB_CRYST1_Space_Group>
P 21 21 21

> <i_pdb_PDB_CRYST1_z>
4

> <s_pdb_PDB_CLASSIFICATION>
TRANSFERASE

> <s_pdb_PDB_DEPOSITION_DATE>
02-SEP-04

> <s_pdb_PDB_format_version>
3.0

> <r_pdb_PDB_RESOLUTION>
2.21

> <s_pdb_PDB_EXPDTA>
X-RAY DIFFRACTION

> <r_pdb_PDB_EXPDTA_TEMPERATURE>
100

> <r_pdb_PDB_EXPDTA_PH>
7

> <s_pdb_PDB_REMARK_350_Biomolecule_1_Transform_1_Chains>
A

> <s_pdb_PDB_REMARK_350_Biomolecule_1_Transform_1_Matrix_1>
1.000000 0.000000 0.000000   0.000000;0.000000 1.000000 0.000000   0.000000;0.000000 0.000000 1.000000   0.000000

> <s_m_Source_Path>
/scratch/alberto/systems/Trials

> <s_m_Source_File>
1w7h_prep.pdb

> <i_m_Source_File_Index>
1

> <s_m_source_file>
ReplaceWaterV2_9.maegz

> <i_m_source_file_index>
34

> <i_lp_mmshare_version>
49012

> <i_f3d_flags>
0

> <s_epik_input>
W2NIXTFbY0hdW2NIXW5bY0hdYzFPW0NIMl1bQ0BASF0oW0NIM10pQyg9TylbTkgyXQ==

> <s_epik_cmdline>
J2VwaWtfcHl0aG9uJywgJy1waCcsICc3LjAnLCAnLXRuJywgJzgnLCAnLW1hJywgJzIwMCcsICctaW1hZScsICc8aW5maWxlLm1hZT4nLCAnLW9tYWUnLCAnPG91dGZpbGUubWFlPic=

> <r_epik_Ionization_Penalty>
  0.0020

> <r_epik_Ionization_Penalty_Charging>
  0.0000

> <r_epik_Ionization_Penalty_Neutral>
  0.0020

> <r_epik_State_Penalty>
  0.0013

> <r_epik_Charging_Adjusted_Penalty>
0.00134665777972739

> <i_epik_Tot_Q>
0

> <i_epik_Tot_abs_Q>
0

> <s_lp_Force_Field>
OPLS3e

> <r_lp_Energy>
10.71332

> <b_lp_Chiralities_Consistent>
1

> <s_lp_Variant>
Core,ligand-designer_replace-H2O_33-1

> <s_m_job_name>
ReplaceWaterV2_9

> <r_lp_tautomer_probability>
1

> <i_rge_num_r_groups>
1

> <r_rge_occupation_R1>
1

> <s_rge_R1>
ligand-designer_replace-H2O_33

> <s_rge_R1_s_m_title>
ligand-designer_replace-H2O_33

> <s_rge_R1_s_m_entry_id>
25702

> <s_rge_R1_s_m_entry_name>
ligand-designer_replace-H2O.smi-ligprep.50

> <s_rge_R1_s_m_smiles>
[*][C@@H](C)C(=O)N

> <s_rge_R1_s_m_Source_File>
ligand-designer_replace-H2O.maegz-dedup.maegz-names.maegz

> <i_rge_R1_i_m_Source_File_Index>
34

> <s_rge_R1_s_m_Source_Path>
/Users/konze/projects/pathfinder/r-groups/final-r-groups

> <s_rge_R1_s_canvas_Unique_SMILES_Stereo>
NC(=O)[C@@H](Cl)C

> <s_rge_R1_s_st_Chirality_1>
4_S_5_2_6_9

> <i_rge_R1_i_lp_mmshare_version>
42013

> <i_rge_R1_i_f3d_flags>
0

> <i_rge_R1_i_m_stars>
0

> <s_rge_R1_s_m_subgroup_title>
ligand-designer_replace-H2O

> <s_rge_R1_s_m_subgroupid>
ligand-designer_replace-H2O.smi-ligprep111

> <b_rge_R1_b_m_subgroup_collapsed>
1

> <s_rge_R1_s_epik_input>
W05IMl1DKD1PKVtDQEBIXShDbClbQ0gzXQ==

> <s_rge_R1_s_epik_cmdline>
J2VwaWtfcHl0aG9uJywgJy1waHQnLCAnMC43JywgJy1waCcsICc3LjAnLCAnLXRuJywgJzgnLCAnLW1hJywgJzIwMCcsICctaW1hZScsICc8aW5maWxlLm1hZT4nLCAnLW9tYWUnLCAnPG91dGZpbGUubWFlPic=

> <r_rge_R1_r_epik_Ionization_Penalty>
0

> <r_rge_R1_r_epik_Ionization_Penalty_Charging>
0

> <r_rge_R1_r_epik_Ionization_Penalty_Neutral>
0

> <r_rge_R1_r_epik_State_Penalty>
0

> <r_rge_R1_r_epik_Charging_Adjusted_Penalty>
0

> <i_rge_R1_i_epik_Tot_Q>
0

> <i_rge_R1_i_epik_Tot_abs_Q>
0

> <s_rge_R1_s_lp_Force_Field>
OPLS_2005

> <r_rge_R1_r_lp_Energy>
-1.06930157419495

> <b_rge_R1_b_lp_Chiralities_Consistent>
1

> <s_rge_R1_s_lp_Variant>
Untitled_Molecule_000197-1

> <r_rge_R1_r_lp_tautomer_probability>
1

> <r_rge_R1_r_m_Shape_Sim>
0.637467923016037

> <s_m_subgroup_title>
ReplaceWaterV2_9-out1

> <s_m_subgroupid>
ReplaceWaterV2_9-out1

> <b_m_subgroup_collapsed>
0

$$$$
Core,ligand-designer_replace-H2O_34
                    3D
 Schrodinger Suite 2020-1.
 25 25  0  0  1  0            999 V2000
   -2.4362    2.6567    0.0774 C   0  0  0  0  0  0
   -3.7639    2.9406    0.0833 N   0  0  0  0  0  0
   -4.6319    1.8997    0.0232 C   0  0  0  0  0  0
   -4.2166    0.5696   -0.0440 C   0  0  0  0  0  0
   -2.8467    0.2989   -0.0495 C   0  0  0  0  0  0
   -1.9230    1.3580    0.0129 C   0  0  0  0  0  0
   -0.5499    1.2142    0.0151 O   0  0  0  0  0  0
    0.0128   -0.0974   -0.0312 C   0  0  0  0  0  0
   -5.6830    2.1483    0.0297 H   0  0  0  0  0  0
   -4.9382   -0.2326   -0.0912 H   0  0  0  0  0  0
   -2.5226   -0.7294   -0.1022 H   0  0  0  0  0  0
   -0.3597   -0.6938    0.8047 H   0  0  0  0  0  0
   -0.3025   -0.5949   -0.9506 H   0  0  0  0  0  0
   -1.7694    3.5050    0.1273 H   0  0  0  0  0  0
    2.8002    1.8961    0.8926 N   0  0  0  0  0  0
    2.0788    0.8116    1.1885 C   0  0  0  0  0  0
    1.8320    0.4966    2.3514 O   0  0  0  0  0  0
    1.5582   -0.0412    0.0138 C   0  0  1  0  0  0
    2.1686   -1.4578    0.0451 C   0  0  0  0  0  0
    3.1575    2.4819    1.6332 H   0  0  0  0  0  0
    2.9858    2.1413   -0.0688 H   0  0  0  0  0  0
    1.8857    0.4220   -0.9192 H   0  0  0  0  0  0
    3.2587   -1.4248    0.0133 H   0  0  0  0  0  0
    1.8396   -2.0464   -0.8123 H   0  0  0  0  0  0
    1.8841   -2.0028    0.9467 H   0  0  0  0  0  0
  1  2  1  0  0  0
  1  6  2  0  0  0
  1 14  1  0  0  0
  2  3  2  0  0  0
  3  4  1  0  0  0
  3  9  1  0  0  0
  4  5  2  0  0  0
  4 10  1  0  0  0
  5  6  1  0  0  0
  5 11  1  0  0  0
  6  7  1  0  0  0
  7  8  1  0  0  0
  8 12  1  0  0  0
  8 13  1  0  0  0
  8 18  1  0  0  0
 15 16  1  0  0  0
 15 20  1  0  0  0
 15 21  1  0  0  0
 16 17  2  0  0  0
 16 18  1  0  0  0
 18 19  1  0  0  0
 18 22  1  0  0  0
 19 23  1  0  0  0
 19 24  1  0  0  0
 19 25  1  0  0  0
M  END
> <i_m_ct_stereo_status>
1

> <i_m_stars>
0

> <s_m_entry_id>
18546

> <s_m_entry_name>
Structure11785

> <s_pdb_PDB_TITLE>
P38 KINASE CRYSTAL STRUCTURE IN COMPLEX WITH SMALL MOLECULE INHIBITOR

> <s_pdb_PDB_ID>
1W7H

> <i_pdb_PDB_Model>
1

> <r_pdb_PDB_CRYST1_a>
45.771

> <r_pdb_PDB_CRYST1_b>
87.101

> <r_pdb_PDB_CRYST1_c>
126.337

> <r_pdb_PDB_CRYST1_alpha>
90

> <r_pdb_PDB_CRYST1_beta>
90

> <r_pdb_PDB_CRYST1_gamma>
90

> <s_pdb_PDB_CRYST1_Space_Group>
P 21 21 21

> <i_pdb_PDB_CRYST1_z>
4

> <s_pdb_PDB_CLASSIFICATION>
TRANSFERASE

> <s_pdb_PDB_DEPOSITION_DATE>
02-SEP-04

> <s_pdb_PDB_format_version>
3.0

> <r_pdb_PDB_RESOLUTION>
2.21

> <s_pdb_PDB_EXPDTA>
X-RAY DIFFRACTION

> <r_pdb_PDB_EXPDTA_TEMPERATURE>
100

> <r_pdb_PDB_EXPDTA_PH>
7

> <s_pdb_PDB_REMARK_350_Biomolecule_1_Transform_1_Chains>
A

> <s_pdb_PDB_REMARK_350_Biomolecule_1_Transform_1_Matrix_1>
1.000000 0.000000 0.000000   0.000000;0.000000 1.000000 0.000000   0.000000;0.000000 0.000000 1.000000   0.000000

> <s_m_Source_Path>
/scratch/alberto/systems/Trials

> <s_m_Source_File>
1w7h_prep.pdb

> <i_m_Source_File_Index>
1

> <s_m_source_file>
ReplaceWaterV2_9.maegz

> <i_m_source_file_index>
35

> <i_lp_mmshare_version>
49012

> <i_f3d_flags>
0

> <s_epik_input>
W2NIXTFbY0hdW2NIXW5bY0hdYzFPW0NIMl1bQ0BIXShbQ0gzXSlDKD1PKVtOSDJd

> <s_epik_cmdline>
J2VwaWtfcHl0aG9uJywgJy1waCcsICc3LjAnLCAnLXRuJywgJzgnLCAnLW1hJywgJzIwMCcsICctaW1hZScsICc8aW5maWxlLm1hZT4nLCAnLW9tYWUnLCAnPG91dGZpbGUubWFlPic=

> <r_epik_Ionization_Penalty>
  0.0020

> <r_epik_Ionization_Penalty_Charging>
  0.0000

> <r_epik_Ionization_Penalty_Neutral>
  0.0020

> <r_epik_State_Penalty>
  0.0013

> <r_epik_Charging_Adjusted_Penalty>
0.00134665777972739

> <i_epik_Tot_Q>
0

> <i_epik_Tot_abs_Q>
0

> <s_lp_Force_Field>
OPLS3e

> <r_lp_Energy>
10.71434

> <b_lp_Chiralities_Consistent>
1

> <s_lp_Variant>
Core,ligand-designer_replace-H2O_34-1

> <s_m_job_name>
ReplaceWaterV2_9

> <r_lp_tautomer_probability>
1

> <i_rge_num_r_groups>
1

> <r_rge_occupation_R1>
1

> <s_rge_R1>
ligand-designer_replace-H2O_34

> <s_rge_R1_s_m_title>
ligand-designer_replace-H2O_34

> <s_rge_R1_s_m_entry_id>
25703

> <s_rge_R1_s_m_entry_name>
ligand-designer_replace-H2O.smi-ligprep.51

> <s_rge_R1_s_m_smiles>
[*][C@H](C)C(=O)N

> <s_rge_R1_s_m_Source_File>
ligand-designer_replace-H2O.maegz-dedup.maegz-names.maegz

> <i_rge_R1_i_m_Source_File_Index>
35

> <s_rge_R1_s_m_Source_Path>
/Users/konze/projects/pathfinder/r-groups/final-r-groups

> <s_rge_R1_s_canvas_Unique_SMILES_Stereo>
NC(=O)[C@H](Cl)C

> <s_rge_R1_s_st_Chirality_1>
4_R_5_2_6_9

> <i_rge_R1_i_lp_mmshare_version>
42013

> <i_rge_R1_i_f3d_flags>
0

> <i_rge_R1_i_m_stars>
0

> <s_rge_R1_s_m_subgroup_title>
ligand-designer_replace-H2O

> <s_rge_R1_s_m_subgroupid>
ligand-designer_replace-H2O.smi-ligprep111

> <b_rge_R1_b_m_subgroup_collapsed>
1

> <s_rge_R1_s_epik_input>
W05IMl1DKD1PKVtDQEBIXShDbClbQ0gzXQ==

> <s_rge_R1_s_epik_cmdline>
J2VwaWtfcHl0aG9uJywgJy1waHQnLCAnMC43JywgJy1waCcsICc3LjAnLCAnLXRuJywgJzgnLCAnLW1hJywgJzIwMCcsICctaW1hZScsICc8aW5maWxlLm1hZT4nLCAnLW9tYWUnLCAnPG91dGZpbGUubWFlPic=

> <r_rge_R1_r_epik_Ionization_Penalty>
0

> <r_rge_R1_r_epik_Ionization_Penalty_Charging>
0

> <r_rge_R1_r_epik_Ionization_Penalty_Neutral>
0

> <r_rge_R1_r_epik_State_Penalty>
0

> <r_rge_R1_r_epik_Charging_Adjusted_Penalty>
0

> <i_rge_R1_i_epik_Tot_Q>
0

> <i_rge_R1_i_epik_Tot_abs_Q>
0

> <s_rge_R1_s_lp_Force_Field>
OPLS_2005

> <r_rge_R1_r_lp_Energy>
-1.06930328629493

> <b_rge_R1_b_lp_Chiralities_Consistent>
1

> <s_rge_R1_s_lp_Variant>
Untitled_Molecule_000197-2

> <r_rge_R1_r_lp_tautomer_probability>
1

> <r_rge_R1_r_m_Shape_Sim>
0.637467699709792

> <s_m_subgroup_title>
ReplaceWaterV2_9-out1

> <s_m_subgroupid>
ReplaceWaterV2_9-out1

> <b_m_subgroup_collapsed>
0

$$$$
Core,ligand-designer_replace-H2O_35
                    3D
 Schrodinger Suite 2020-1.
 25 25  0  0  1  0            999 V2000
   -2.3879    2.6097    0.4175 C   0  0  0  0  0  0
   -3.7062    2.9286    0.4810 N   0  0  0  0  0  0
   -4.6058    1.9527    0.2003 C   0  0  0  0  0  0
   -4.2318    0.6542   -0.1451 C   0  0  0  0  0  0
   -2.8713    0.3462   -0.2046 C   0  0  0  0  0  0
   -1.9150    1.3378    0.0804 C   0  0  0  0  0  0
   -0.5469    1.1515    0.0524 O   0  0  0  0  0  0
   -0.0296   -0.1316   -0.2910 C   0  0  0  0  0  0
   -5.6486    2.2284    0.2564 H   0  0  0  0  0  0
   -4.9777   -0.0963   -0.3619 H   0  0  0  0  0  0
   -2.5796   -0.6583   -0.4717 H   0  0  0  0  0  0
   -0.3884   -0.8895    0.4080 H   0  0  0  0  0  0
   -0.3683   -0.4147   -1.2893 H   0  0  0  0  0  0
   -1.6960    3.4073    0.6451 H   0  0  0  0  0  0
    4.1789    0.4895    2.3711 N   0  0  0  0  0  0
    3.6301    0.2256    1.1832 C   0  0  0  0  0  0
    4.3189   -0.0076    0.1910 O   0  0  0  0  0  0
    2.0945    0.2286    1.1221 C   0  0  0  0  0  0
    1.5068   -0.0910   -0.2722 C   0  0  0  0  0  0
    5.1834    0.5012    2.4718 H   0  0  0  0  0  0
    3.5961    0.6765    3.1740 H   0  0  0  0  0  0
    1.7263   -0.5002    1.8459 H   0  0  0  0  0  0
    1.7452    1.2091    1.4495 H   0  0  0  0  0  0
    1.8790   -1.0578   -0.6156 H   0  0  0  0  0  0
    1.8492    0.6465   -1.0004 H   0  0  0  0  0  0
  1  2  1  0  0  0
  1  6  2  0  0  0
  1 14  1  0  0  0
  2  3  2  0  0  0
  3  4  1  0  0  0
  3  9  1  0  0  0
  4  5  2  0  0  0
  4 10  1  0  0  0
  5  6  1  0  0  0
  5 11  1  0  0  0
  6  7  1  0  0  0
  7  8  1  0  0  0
  8 12  1  0  0  0
  8 13  1  0  0  0
  8 19  1  0  0  0
 15 16  1  0  0  0
 15 20  1  0  0  0
 15 21  1  0  0  0
 16 17  2  0  0  0
 16 18  1  0  0  0
 18 19  1  0  0  0
 18 22  1  0  0  0
 18 23  1  0  0  0
 19 24  1  0  0  0
 19 25  1  0  0  0
M  END
> <i_m_ct_stereo_status>
1

> <i_m_stars>
0

> <s_m_entry_id>
18547

> <s_m_entry_name>
Structure11785

> <s_pdb_PDB_TITLE>
P38 KINASE CRYSTAL STRUCTURE IN COMPLEX WITH SMALL MOLECULE INHIBITOR

> <s_pdb_PDB_ID>
1W7H

> <i_pdb_PDB_Model>
1

> <r_pdb_PDB_CRYST1_a>
45.771

> <r_pdb_PDB_CRYST1_b>
87.101

> <r_pdb_PDB_CRYST1_c>
126.337

> <r_pdb_PDB_CRYST1_alpha>
90

> <r_pdb_PDB_CRYST1_beta>
90

> <r_pdb_PDB_CRYST1_gamma>
90

> <s_pdb_PDB_CRYST1_Space_Group>
P 21 21 21

> <i_pdb_PDB_CRYST1_z>
4

> <s_pdb_PDB_CLASSIFICATION>
TRANSFERASE

> <s_pdb_PDB_DEPOSITION_DATE>
02-SEP-04

> <s_pdb_PDB_format_version>
3.0

> <r_pdb_PDB_RESOLUTION>
2.21

> <s_pdb_PDB_EXPDTA>
X-RAY DIFFRACTION

> <r_pdb_PDB_EXPDTA_TEMPERATURE>
100

> <r_pdb_PDB_EXPDTA_PH>
7

> <s_pdb_PDB_REMARK_350_Biomolecule_1_Transform_1_Chains>
A

> <s_pdb_PDB_REMARK_350_Biomolecule_1_Transform_1_Matrix_1>
1.000000 0.000000 0.000000   0.000000;0.000000 1.000000 0.000000   0.000000;0.000000 0.000000 1.000000   0.000000

> <s_m_Source_Path>
/scratch/alberto/systems/Trials

> <s_m_Source_File>
1w7h_prep.pdb

> <i_m_Source_File_Index>
1

> <s_m_source_file>
ReplaceWaterV2_9.maegz

> <i_m_source_file_index>
36

> <i_lp_mmshare_version>
49012

> <i_f3d_flags>
0

> <s_epik_input>
W2NIXTFbY0hdW2NIXW5bY0hdYzFPW0NIMl1bQ0gyXVtDSDJdQyg9TylbTkgyXQ==

> <s_epik_cmdline>
J2VwaWtfcHl0aG9uJywgJy1waCcsICc3LjAnLCAnLXRuJywgJzgnLCAnLW1hJywgJzIwMCcsICctaW1hZScsICc8aW5maWxlLm1hZT4nLCAnLW9tYWUnLCAnPG91dGZpbGUubWFlPic=

> <r_epik_Ionization_Penalty>
  0.0022

> <r_epik_Ionization_Penalty_Charging>
  0.0000

> <r_epik_Ionization_Penalty_Neutral>
  0.0022

> <r_epik_State_Penalty>
  0.0015

> <r_epik_Charging_Adjusted_Penalty>
0.00154922937177358

> <i_epik_Tot_Q>
0

> <i_epik_Tot_abs_Q>
0

> <s_lp_Force_Field>
OPLS3e

> <r_lp_Energy>
11.203653

> <b_lp_Chiralities_Consistent>
1

> <s_lp_Variant>
Core,ligand-designer_replace-H2O_35-1

> <s_m_job_name>
ReplaceWaterV2_9

> <r_lp_tautomer_probability>
1

> <i_rge_num_r_groups>
1

> <r_rge_occupation_R1>
1

> <s_rge_R1>
ligand-designer_replace-H2O_35

> <s_rge_R1_s_m_title>
ligand-designer_replace-H2O_35

> <s_rge_R1_s_m_entry_id>
25704

> <s_rge_R1_s_m_entry_name>
ligand-designer_replace-H2O.smi-ligprep.54

> <s_rge_R1_s_m_smiles>
[*]CCC(=O)N

> <s_rge_R1_s_m_Source_File>
ligand-designer_replace-H2O.maegz-dedup.maegz-names.maegz

> <i_rge_R1_i_m_Source_File_Index>
36

> <s_rge_R1_s_m_Source_Path>
/Users/konze/projects/pathfinder/r-groups/final-r-groups

> <s_rge_R1_s_canvas_Unique_SMILES_Stereo>
NC(=O)CCCl

> <i_rge_R1_i_lp_mmshare_version>
42013

> <i_rge_R1_i_f3d_flags>
0

> <i_rge_R1_i_m_stars>
0

> <s_rge_R1_s_m_subgroup_title>
ligand-designer_replace-H2O

> <s_rge_R1_s_m_subgroupid>
ligand-designer_replace-H2O.smi-ligprep111

> <b_rge_R1_b_m_subgroup_collapsed>
1

> <s_rge_R1_s_epik_input>
W05IMl1DKD1PKVtDSDJdW0NIMl1DbA==

> <s_rge_R1_s_epik_cmdline>
J2VwaWtfcHl0aG9uJywgJy1waHQnLCAnMC43JywgJy1waCcsICc3LjAnLCAnLXRuJywgJzgnLCAnLW1hJywgJzIwMCcsICctaW1hZScsICc8aW5maWxlLm1hZT4nLCAnLW9tYWUnLCAnPG91dGZpbGUubWFlPic=

> <r_rge_R1_r_epik_Ionization_Penalty>
0

> <r_rge_R1_r_epik_Ionization_Penalty_Charging>
0

> <r_rge_R1_r_epik_Ionization_Penalty_Neutral>
0

> <r_rge_R1_r_epik_State_Penalty>
0

> <r_rge_R1_r_epik_Charging_Adjusted_Penalty>
0

> <i_rge_R1_i_epik_Tot_Q>
0

> <i_rge_R1_i_epik_Tot_abs_Q>
0

> <s_rge_R1_s_lp_Force_Field>
OPLS_2005

> <r_rge_R1_r_lp_Energy>
-2.27834886738284

> <b_rge_R1_b_lp_Chiralities_Consistent>
1

> <s_rge_R1_s_lp_Variant>
Untitled_Molecule_000198-1

> <r_rge_R1_r_lp_tautomer_probability>
1

> <r_rge_R1_r_m_Shape_Sim>
0.638559043241147

> <s_m_subgroup_title>
ReplaceWaterV2_9-out1

> <s_m_subgroupid>
ReplaceWaterV2_9-out1

> <b_m_subgroup_collapsed>
0

$$$$
Core,ligand-designer_replace-H2O_36
                    3D
 Schrodinger Suite 2020-1.
 24 25  0  0  1  0            999 V2000
   -1.9173    1.3931    0.0874 C   0  0  0  0  0  0
   -2.6279    2.5500    0.0875 N   0  0  0  0  0  0
   -1.9366    3.7152    0.0188 C   0  0  0  0  0  0
   -0.5442    3.7670   -0.0497 C   0  0  0  0  0  0
    0.1681    2.5661   -0.0481 C   0  0  0  0  0  0
   -0.5217    1.3423    0.0212 C   0  0  0  0  0  0
    0.0729    0.0960    0.0295 O   0  0  0  0  0  0
    1.4948    0.0041   -0.0450 C   0  0  0  0  0  0
   -2.5220    4.6229    0.0204 H   0  0  0  0  0  0
   -0.0281    4.7144   -0.1017 H   0  0  0  0  0  0
    1.2456    2.6038   -0.0996 H   0  0  0  0  0  0
    1.8639    0.4882   -0.9516 H   0  0  0  0  0  0
    1.9326    0.5283    0.8072 H   0  0  0  0  0  0
   -2.4954    0.4824    0.1420 H   0  0  0  0  0  0
    1.4905   -2.1187   -1.2172 O   0  0  0  0  0  0
    1.9224   -1.4801   -0.0300 C   0  0  0  0  0  0
    3.4057   -1.6803    0.3235 C   0  0  0  0  0  0
    3.0420   -2.3716    1.5923 O   0  0  0  0  0  0
    1.5934   -2.2028    1.2870 C   0  0  0  0  0  0
    1.7573   -3.0403   -1.1815 H   0  0  0  0  0  0
    3.9589   -2.3755   -0.3101 H   0  0  0  0  0  0
    3.9761   -0.7811    0.5614 H   0  0  0  0  0  0
    1.1345   -1.5973    2.0703 H   0  0  0  0  0  0
    1.1355   -3.1884    1.1901 H   0  0  0  0  0  0
  1  2  1  0  0  0
  1  6  2  0  0  0
  1 14  1  0  0  0
  2  3  2  0  0  0
  3  4  1  0  0  0
  3  9  1  0  0  0
  4  5  2  0  0  0
  4 10  1  0  0  0
  5  6  1  0  0  0
  5 11  1  0  0  0
  6  7  1  0  0  0
  7  8  1  0  0  0
  8 12  1  0  0  0
  8 13  1  0  0  0
  8 16  1  0  0  0
 15 16  1  0  0  0
 15 20  1  0  0  0
 16 19  1  0  0  0
 16 17  1  0  0  0
 17 18  1  0  0  0
 17 21  1  0  0  0
 17 22  1  0  0  0
 18 19  1  0  0  0
 19 23  1  0  0  0
 19 24  1  0  0  0
M  END
> <i_m_ct_stereo_status>
1

> <i_m_stars>
0

> <s_m_entry_id>
18548

> <s_m_entry_name>
Structure11785

> <s_pdb_PDB_TITLE>
P38 KINASE CRYSTAL STRUCTURE IN COMPLEX WITH SMALL MOLECULE INHIBITOR

> <s_pdb_PDB_ID>
1W7H

> <i_pdb_PDB_Model>
1

> <r_pdb_PDB_CRYST1_a>
45.771

> <r_pdb_PDB_CRYST1_b>
87.101

> <r_pdb_PDB_CRYST1_c>
126.337

> <r_pdb_PDB_CRYST1_alpha>
90

> <r_pdb_PDB_CRYST1_beta>
90

> <r_pdb_PDB_CRYST1_gamma>
90

> <s_pdb_PDB_CRYST1_Space_Group>
P 21 21 21

> <i_pdb_PDB_CRYST1_z>
4

> <s_pdb_PDB_CLASSIFICATION>
TRANSFERASE

> <s_pdb_PDB_DEPOSITION_DATE>
02-SEP-04

> <s_pdb_PDB_format_version>
3.0

> <r_pdb_PDB_RESOLUTION>
2.21

> <s_pdb_PDB_EXPDTA>
X-RAY DIFFRACTION

> <r_pdb_PDB_EXPDTA_TEMPERATURE>
100

> <r_pdb_PDB_EXPDTA_PH>
7

> <s_pdb_PDB_REMARK_350_Biomolecule_1_Transform_1_Chains>
A

> <s_pdb_PDB_REMARK_350_Biomolecule_1_Transform_1_Matrix_1>
1.000000 0.000000 0.000000   0.000000;0.000000 1.000000 0.000000   0.000000;0.000000 0.000000 1.000000   0.000000

> <s_m_Source_Path>
/scratch/alberto/systems/Trials

> <s_m_Source_File>
1w7h_prep.pdb

> <i_m_Source_File_Index>
1

> <s_m_source_file>
ReplaceWaterV2_9.maegz

> <i_m_source_file_index>
37

> <i_lp_mmshare_version>
49012

> <i_f3d_flags>
0

> <s_epik_input>
W2NIXTFbY0hdW2NIXW5bY0hdYzFPW0NIMl1DMihbT0hdKVtDSDJdT1tDSDJdMg==

> <s_epik_cmdline>
J2VwaWtfcHl0aG9uJywgJy1waCcsICc3LjAnLCAnLXRuJywgJzgnLCAnLW1hJywgJzIwMCcsICctaW1hZScsICc8aW5maWxlLm1hZT4nLCAnLW9tYWUnLCAnPG91dGZpbGUubWFlPic=

> <r_epik_Ionization_Penalty>
  0.0023

> <r_epik_Ionization_Penalty_Charging>
  0.0000

> <r_epik_Ionization_Penalty_Neutral>
  0.0023

> <r_epik_State_Penalty>
  0.0016

> <r_epik_Charging_Adjusted_Penalty>
0.00161551958129825

> <i_epik_Tot_Q>
0

> <i_epik_Tot_abs_Q>
0

> <s_lp_Force_Field>
OPLS3e

> <r_lp_Energy>
15.233371

> <b_lp_Chiralities_Consistent>
1

> <s_lp_Variant>
Core,ligand-designer_replace-H2O_36-1

> <s_m_job_name>
ReplaceWaterV2_9

> <r_lp_tautomer_probability>
1

> <i_rge_num_r_groups>
1

> <r_rge_occupation_R1>
1

> <s_rge_R1>
ligand-designer_replace-H2O_36

> <s_rge_R1_s_m_title>
ligand-designer_replace-H2O_36

> <s_rge_R1_s_m_entry_id>
25705

> <s_rge_R1_s_m_entry_name>
ligand-designer_replace-H2O.smi-ligprep.55

> <s_rge_R1_s_m_smiles>
[*]C1(O)COC1

> <s_rge_R1_s_m_Source_File>
ligand-designer_replace-H2O.maegz-dedup.maegz-names.maegz

> <i_rge_R1_i_m_Source_File_Index>
37

> <s_rge_R1_s_m_Source_Path>
/Users/konze/projects/pathfinder/r-groups/final-r-groups

> <s_rge_R1_s_canvas_Unique_SMILES_Stereo>
OC1(Cl)COC1

> <i_rge_R1_i_lp_mmshare_version>
42013

> <i_rge_R1_i_f3d_flags>
0

> <i_rge_R1_i_m_stars>
0

> <s_rge_R1_s_m_subgroup_title>
ligand-designer_replace-H2O

> <s_rge_R1_s_m_subgroupid>
ligand-designer_replace-H2O.smi-ligprep111

> <b_rge_R1_b_m_subgroup_collapsed>
1

> <s_rge_R1_s_epik_input>
W09IXUMxKENsKVtDSDJdT1tDSDJdMQ==

> <s_rge_R1_s_epik_cmdline>
J2VwaWtfcHl0aG9uJywgJy1waHQnLCAnMC43JywgJy1waCcsICc3LjAnLCAnLXRuJywgJzgnLCAnLW1hJywgJzIwMCcsICctaW1hZScsICc8aW5maWxlLm1hZT4nLCAnLW9tYWUnLCAnPG91dGZpbGUubWFlPic=

> <r_rge_R1_r_epik_Ionization_Penalty>
0.0009

> <r_rge_R1_r_epik_Ionization_Penalty_Charging>
0

> <r_rge_R1_r_epik_Ionization_Penalty_Neutral>
0.0009

> <r_rge_R1_r_epik_State_Penalty>
0

> <r_rge_R1_r_epik_Charging_Adjusted_Penalty>
0

> <i_rge_R1_i_epik_Tot_Q>
0

> <i_rge_R1_i_epik_Tot_abs_Q>
0

> <s_rge_R1_s_lp_Force_Field>
OPLS_2005

> <r_rge_R1_r_lp_Energy>
-0.947180697299269

> <b_rge_R1_b_lp_Chiralities_Consistent>
1

> <s_rge_R1_s_lp_Variant>
Untitled_Molecule_000229-1

> <r_rge_R1_r_lp_tautomer_probability>
1

> <r_rge_R1_r_m_Shape_Sim>
0.79235803857385

> <s_m_subgroup_title>
ReplaceWaterV2_9-out1

> <s_m_subgroupid>
ReplaceWaterV2_9-out1

> <b_m_subgroup_collapsed>
0

$$$$
Core,ligand-designer_replace-H2O_37
                    3D
 Schrodinger Suite 2020-1.
 24 25  0  0  1  0            999 V2000
   -1.9085    1.3643    0.0000 C   0  0  0  0  0  0
   -2.6492    2.5023    0.0000 N   0  0  0  0  0  0
   -1.9872    3.6864   -0.0000 C   0  0  0  0  0  0
   -0.5952    3.7761   -0.0000 C   0  0  0  0  0  0
    0.1486    2.5944   -0.0000 C   0  0  0  0  0  0
   -0.5104    1.3512   -0.0000 C   0  0  0  0  0  0
    0.1178    0.1207   -0.0000 O   0  0  0  0  0  0
    1.5105    0.0621   -0.0000 C   0  0  0  0  0  0
   -2.5958    4.5787    0.0000 H   0  0  0  0  0  0
   -0.1038    4.7380   -0.0000 H   0  0  0  0  0  0
    1.2262    2.6593   -0.0000 H   0  0  0  0  0  0
    1.8916    0.5453   -0.9029 H   0  0  0  0  0  0
    1.8916    0.5456    0.9028 H   0  0  0  0  0  0
   -2.4630    0.4373    0.0000 H   0  0  0  0  0  0
    1.9316   -1.2641    0.0002 O   0  0  0  0  0  0
    3.3447   -1.4681    0.0001 C   0  0  0  0  0  0
    3.7579   -2.4917   -1.0606 C   0  0  0  0  0  0
    4.1140   -3.4781   -0.0003 O   0  0  0  0  0  0
    3.7580   -2.4920    1.0604 C   0  0  0  0  0  0
    3.8713   -0.5107    0.0002 H   0  0  0  0  0  0
    2.9527   -2.9075   -1.6683 H   0  0  0  0  0  0
    4.6546   -2.2475   -1.6314 H   0  0  0  0  0  0
    4.6548   -2.2480    1.6311 H   0  0  0  0  0  0
    2.9529   -2.9080    1.6680 H   0  0  0  0  0  0
  1  2  1  0  0  0
  1  6  2  0  0  0
  1 14  1  0  0  0
  2  3  2  0  0  0
  3  4  1  0  0  0
  3  9  1  0  0  0
  4  5  2  0  0  0
  4 10  1  0  0  0
  5  6  1  0  0  0
  5 11  1  0  0  0
  6  7  1  0  0  0
  7  8  1  0  0  0
  8 12  1  0  0  0
  8 13  1  0  0  0
  8 15  1  0  0  0
 15 16  1  0  0  0
 16 19  1  0  0  0
 16 17  1  0  0  0
 16 20  1  0  0  0
 17 18  1  0  0  0
 17 21  1  0  0  0
 17 22  1  0  0  0
 18 19  1  0  0  0
 19 23  1  0  0  0
 19 24  1  0  0  0
M  END
> <i_m_ct_stereo_status>
1

> <i_m_stars>
0

> <s_m_entry_id>
18549

> <s_m_entry_name>
Structure11785

> <s_pdb_PDB_TITLE>
P38 KINASE CRYSTAL STRUCTURE IN COMPLEX WITH SMALL MOLECULE INHIBITOR

> <s_pdb_PDB_ID>
1W7H

> <i_pdb_PDB_Model>
1

> <r_pdb_PDB_CRYST1_a>
45.771

> <r_pdb_PDB_CRYST1_b>
87.101

> <r_pdb_PDB_CRYST1_c>
126.337

> <r_pdb_PDB_CRYST1_alpha>
90

> <r_pdb_PDB_CRYST1_beta>
90

> <r_pdb_PDB_CRYST1_gamma>
90

> <s_pdb_PDB_CRYST1_Space_Group>
P 21 21 21

> <i_pdb_PDB_CRYST1_z>
4

> <s_pdb_PDB_CLASSIFICATION>
TRANSFERASE

> <s_pdb_PDB_DEPOSITION_DATE>
02-SEP-04

> <s_pdb_PDB_format_version>
3.0

> <r_pdb_PDB_RESOLUTION>
2.21

> <s_pdb_PDB_EXPDTA>
X-RAY DIFFRACTION

> <r_pdb_PDB_EXPDTA_TEMPERATURE>
100

> <r_pdb_PDB_EXPDTA_PH>
7

> <s_pdb_PDB_REMARK_350_Biomolecule_1_Transform_1_Chains>
A

> <s_pdb_PDB_REMARK_350_Biomolecule_1_Transform_1_Matrix_1>
1.000000 0.000000 0.000000   0.000000;0.000000 1.000000 0.000000   0.000000;0.000000 0.000000 1.000000   0.000000

> <s_m_Source_Path>
/scratch/alberto/systems/Trials

> <s_m_Source_File>
1w7h_prep.pdb

> <i_m_Source_File_Index>
1

> <s_m_source_file>
ReplaceWaterV2_9.maegz

> <i_m_source_file_index>
38

> <i_lp_mmshare_version>
49012

> <i_f3d_flags>
0

> <s_epik_input>
W2NIXTFbY0hdW2NIXW5bY0hdYzFPW0NIMl1PW0NIXTJbQ0gyXU9bQ0gyXTI=

> <s_epik_cmdline>
J2VwaWtfcHl0aG9uJywgJy1waCcsICc3LjAnLCAnLXRuJywgJzgnLCAnLW1hJywgJzIwMCcsICctaW1hZScsICc8aW5maWxlLm1hZT4nLCAnLW9tYWUnLCAnPG91dGZpbGUubWFlPic=

> <r_epik_Ionization_Penalty>
  0.0033

> <r_epik_Ionization_Penalty_Charging>
  0.0000

> <r_epik_Ionization_Penalty_Neutral>
  0.0033

> <r_epik_State_Penalty>
  0.0023

> <r_epik_Charging_Adjusted_Penalty>
0.00230365155458241

> <i_epik_Tot_Q>
0

> <i_epik_Tot_abs_Q>
0

> <s_lp_Force_Field>
OPLS3e

> <r_lp_Energy>
22.358992

> <b_lp_Chiralities_Consistent>
1

> <s_lp_Variant>
Core,ligand-designer_replace-H2O_37-1

> <s_m_job_name>
ReplaceWaterV2_9

> <r_lp_tautomer_probability>
1

> <s_epik_Chemistry_Notes>
This compound contains an acetal/aminal-like group ( X-CH(R)-Y where X, Y are N, S, or O) that may be acid/base labile, releasing an aldehyde.

> <i_rge_num_r_groups>
1

> <r_rge_occupation_R1>
1

> <s_rge_R1>
ligand-designer_replace-H2O_37

> <s_rge_R1_s_m_title>
ligand-designer_replace-H2O_37

> <s_rge_R1_s_m_entry_id>
25706

> <s_rge_R1_s_m_entry_name>
ligand-designer_replace-H2O.smi-ligprep.56

> <s_rge_R1_s_m_smiles>
[*]OC1COC1

> <s_rge_R1_s_m_Source_File>
ligand-designer_replace-H2O.maegz-dedup.maegz-names.maegz

> <i_rge_R1_i_m_Source_File_Index>
38

> <s_rge_R1_s_m_Source_Path>
/Users/konze/projects/pathfinder/r-groups/final-r-groups

> <s_rge_R1_s_canvas_Unique_SMILES_Stereo>
ClOC1COC1

> <i_rge_R1_i_lp_mmshare_version>
42013

> <i_rge_R1_i_f3d_flags>
0

> <i_rge_R1_i_m_stars>
0

> <s_rge_R1_s_m_subgroup_title>
ligand-designer_replace-H2O

> <s_rge_R1_s_m_subgroupid>
ligand-designer_replace-H2O.smi-ligprep111

> <b_rge_R1_b_m_subgroup_collapsed>
1

> <s_rge_R1_s_epik_input>
Q2xPW0NIXTFbQ0gyXU9bQ0gyXTE=

> <s_rge_R1_s_epik_cmdline>
J2VwaWtfcHl0aG9uJywgJy1waHQnLCAnMC43JywgJy1waCcsICc3LjAnLCAnLXRuJywgJzgnLCAnLW1hJywgJzIwMCcsICctaW1hZScsICc8aW5maWxlLm1hZT4nLCAnLW9tYWUnLCAnPG91dGZpbGUubWFlPic=

> <r_rge_R1_r_epik_Ionization_Penalty>
0

> <r_rge_R1_r_epik_Ionization_Penalty_Charging>
0

> <r_rge_R1_r_epik_Ionization_Penalty_Neutral>
0

> <r_rge_R1_r_epik_State_Penalty>
0

> <r_rge_R1_r_epik_Charging_Adjusted_Penalty>
0

> <i_rge_R1_i_epik_Tot_Q>
0

> <i_rge_R1_i_epik_Tot_abs_Q>
0

> <s_rge_R1_s_lp_Force_Field>
OPLS_2005

> <r_rge_R1_r_lp_Energy>
3.56277865102609

> <b_rge_R1_b_lp_Chiralities_Consistent>
1

> <s_rge_R1_s_lp_Variant>
Untitled_Molecule_000230-1

> <r_rge_R1_r_lp_tautomer_probability>
1

> <r_rge_R1_r_m_Shape_Sim>
0.768030415153745

> <s_m_subgroup_title>
ReplaceWaterV2_9-out1

> <s_m_subgroupid>
ReplaceWaterV2_9-out1

> <b_m_subgroup_collapsed>
0

$$$$
Core,ligand-designer_replace-H2O_38
                    3D
 Schrodinger Suite 2020-1.
 24 24  0  0  1  0            999 V2000
   -1.9206    1.4236   -0.0064 C   0  0  0  0  0  0
   -2.6077    2.5947   -0.0043 N   0  0  0  0  0  0
   -1.8914    3.7467    0.0002 C   0  0  0  0  0  0
   -0.4967    3.7713    0.0022 C   0  0  0  0  0  0
    0.1913    2.5563    0.0007 C   0  0  0  0  0  0
   -0.5247    1.3455   -0.0032 C   0  0  0  0  0  0
    0.0445    0.0873   -0.0035 O   0  0  0  0  0  0
    1.4652   -0.0304    0.0165 C   0  0  0  0  0  0
   -2.4580    4.6662    0.0019 H   0  0  0  0  0  0
    0.0394    4.7088    0.0048 H   0  0  0  0  0  0
    1.2705    2.5729    0.0020 H   0  0  0  0  0  0
    1.8966    0.4722   -0.8514 H   0  0  0  0  0  0
    1.8700    0.4447    0.9117 H   0  0  0  0  0  0
   -2.5180    0.5238   -0.0095 H   0  0  0  0  0  0
    1.3355   -2.8986   -3.3062 N   0  0  0  0  0  0
    1.9630   -2.1522   -2.3977 C   0  0  0  0  0  0
    2.9473   -1.4659   -2.6670 O   0  0  0  0  0  0
    1.3996   -2.2412   -1.1827 N   0  0  0  0  0  0
    1.8554   -1.5196    0.0060 C   0  0  0  0  0  0
    1.6681   -2.9166   -4.2591 H   0  0  0  0  0  0
    0.5230   -3.4407   -3.0527 H   0  0  0  0  0  0
    0.5959   -2.8398   -1.0634 H   0  0  0  0  0  0
    2.9347   -1.6304    0.1283 H   0  0  0  0  0  0
    1.4024   -2.0106    0.8680 H   0  0  0  0  0  0
  1  2  1  0  0  0
  1  6  2  0  0  0
  1 14  1  0  0  0
  2  3  2  0  0  0
  3  4  1  0  0  0
  3  9  1  0  0  0
  4  5  2  0  0  0
  4 10  1  0  0  0
  5  6  1  0  0  0
  5 11  1  0  0  0
  6  7  1  0  0  0
  7  8  1  0  0  0
  8 12  1  0  0  0
  8 13  1  0  0  0
  8 19  1  0  0  0
 15 16  1  0  0  0
 15 20  1  0  0  0
 15 21  1  0  0  0
 16 17  2  0  0  0
 16 18  1  0  0  0
 18 19  1  0  0  0
 18 22  1  0  0  0
 19 23  1  0  0  0
 19 24  1  0  0  0
M  END
> <i_m_ct_stereo_status>
1

> <i_m_stars>
0

> <s_m_entry_id>
18550

> <s_m_entry_name>
Structure11785

> <s_pdb_PDB_TITLE>
P38 KINASE CRYSTAL STRUCTURE IN COMPLEX WITH SMALL MOLECULE INHIBITOR

> <s_pdb_PDB_ID>
1W7H

> <i_pdb_PDB_Model>
1

> <r_pdb_PDB_CRYST1_a>
45.771

> <r_pdb_PDB_CRYST1_b>
87.101

> <r_pdb_PDB_CRYST1_c>
126.337

> <r_pdb_PDB_CRYST1_alpha>
90

> <r_pdb_PDB_CRYST1_beta>
90

> <r_pdb_PDB_CRYST1_gamma>
90

> <s_pdb_PDB_CRYST1_Space_Group>
P 21 21 21

> <i_pdb_PDB_CRYST1_z>
4

> <s_pdb_PDB_CLASSIFICATION>
TRANSFERASE

> <s_pdb_PDB_DEPOSITION_DATE>
02-SEP-04

> <s_pdb_PDB_format_version>
3.0

> <r_pdb_PDB_RESOLUTION>
2.21

> <s_pdb_PDB_EXPDTA>
X-RAY DIFFRACTION

> <r_pdb_PDB_EXPDTA_TEMPERATURE>
100

> <r_pdb_PDB_EXPDTA_PH>
7

> <s_pdb_PDB_REMARK_350_Biomolecule_1_Transform_1_Chains>
A

> <s_pdb_PDB_REMARK_350_Biomolecule_1_Transform_1_Matrix_1>
1.000000 0.000000 0.000000   0.000000;0.000000 1.000000 0.000000   0.000000;0.000000 0.000000 1.000000   0.000000

> <s_m_Source_Path>
/scratch/alberto/systems/Trials

> <s_m_Source_File>
1w7h_prep.pdb

> <i_m_Source_File_Index>
1

> <s_m_source_file>
ReplaceWaterV2_9.maegz

> <i_m_source_file_index>
39

> <i_lp_mmshare_version>
49012

> <i_f3d_flags>
0

> <s_epik_input>
W2NIXTFbY0hdW2NIXW5bY0hdYzFPW0NIMl1bQ0gyXVtOSF1DKD1PKVtOSDJd

> <s_epik_cmdline>
J2VwaWtfcHl0aG9uJywgJy1waCcsICc3LjAnLCAnLXRuJywgJzgnLCAnLW1hJywgJzIwMCcsICctaW1hZScsICc8aW5maWxlLm1hZT4nLCAnLW9tYWUnLCAnPG91dGZpbGUubWFlPic=

> <r_epik_Ionization_Penalty>
  0.0017

> <r_epik_Ionization_Penalty_Charging>
  0.0000

> <r_epik_Ionization_Penalty_Neutral>
  0.0017

> <r_epik_State_Penalty>
  0.0011

> <r_epik_Charging_Adjusted_Penalty>
0.00109866459276669

> <i_epik_Tot_Q>
0

> <i_epik_Tot_abs_Q>
0

> <s_lp_Force_Field>
OPLS3e

> <r_lp_Energy>
9.955702

> <b_lp_Chiralities_Consistent>
1

> <s_lp_Variant>
Core,ligand-designer_replace-H2O_38-1

> <s_m_job_name>
ReplaceWaterV2_9

> <r_lp_tautomer_probability>
1

> <i_rge_num_r_groups>
1

> <r_rge_occupation_R1>
1

> <s_rge_R1>
ligand-designer_replace-H2O_38

> <s_rge_R1_s_m_title>
ligand-designer_replace-H2O_38

> <s_rge_R1_s_m_entry_id>
25707

> <s_rge_R1_s_m_entry_name>
ligand-designer_replace-H2O.smi-ligprep.57

> <s_rge_R1_s_m_smiles>
[*]CNC(=O)N

> <s_rge_R1_s_m_Source_File>
ligand-designer_replace-H2O.maegz-dedup.maegz-names.maegz

> <i_rge_R1_i_m_Source_File_Index>
39

> <s_rge_R1_s_m_Source_Path>
/Users/konze/projects/pathfinder/r-groups/final-r-groups

> <s_rge_R1_s_canvas_Unique_SMILES_Stereo>
NC(=O)NCCl

> <i_rge_R1_i_lp_mmshare_version>
42013

> <i_rge_R1_i_f3d_flags>
0

> <i_rge_R1_i_m_stars>
0

> <s_rge_R1_s_m_subgroup_title>
ligand-designer_replace-H2O

> <s_rge_R1_s_m_subgroupid>
ligand-designer_replace-H2O.smi-ligprep111

> <b_rge_R1_b_m_subgroup_collapsed>
1

> <s_rge_R1_s_epik_input>
W05IMl1DKD1PKVtOSF1bQ0gyXUNs

> <s_rge_R1_s_epik_cmdline>
J2VwaWtfcHl0aG9uJywgJy1waHQnLCAnMC43JywgJy1waCcsICc3LjAnLCAnLXRuJywgJzgnLCAnLW1hJywgJzIwMCcsICctaW1hZScsICc8aW5maWxlLm1hZT4nLCAnLW9tYWUnLCAnPG91dGZpbGUubWFlPic=

> <r_rge_R1_r_epik_Ionization_Penalty>
0

> <r_rge_R1_r_epik_Ionization_Penalty_Charging>
0

> <r_rge_R1_r_epik_Ionization_Penalty_Neutral>
0

> <r_rge_R1_r_epik_State_Penalty>
0

> <r_rge_R1_r_epik_Charging_Adjusted_Penalty>
0

> <i_rge_R1_i_epik_Tot_Q>
0

> <i_rge_R1_i_epik_Tot_abs_Q>
0

> <s_rge_R1_s_lp_Force_Field>
OPLS_2005

> <r_rge_R1_r_lp_Energy>
-5.26908929485416

> <b_rge_R1_b_lp_Chiralities_Consistent>
1

> <s_rge_R1_s_lp_Variant>
Untitled_Molecule_000237-1

> <r_rge_R1_r_lp_tautomer_probability>
1

> <r_rge_R1_r_m_Shape_Sim>
0.337122158582953

> <s_m_subgroup_title>
ReplaceWaterV2_9-out1

> <s_m_subgroupid>
ReplaceWaterV2_9-out1

> <b_m_subgroup_collapsed>
0

$$$$
Core,ligand-designer_replace-H2O_39
                    3D
 Schrodinger Suite 2020-1.
 24 24  0  0  1  0            999 V2000
   -2.3825    2.6574    0.0000 C   0  0  0  0  0  0
   -3.7045    2.9670   -0.0000 N   0  0  0  0  0  0
   -4.5930    1.9417   -0.0000 C   0  0  0  0  0  0
   -4.2040    0.6022   -0.0000 C   0  0  0  0  0  0
   -2.8400    0.3047   -0.0000 C   0  0  0  0  0  0
   -1.8952    1.3470    0.0000 C   0  0  0  0  0  0
   -0.5246    1.1746    0.0000 O   0  0  0  0  0  0
    0.0075   -0.1205    0.0000 C   0  0  0  0  0  0
   -5.6390    2.2109   -0.0000 H   0  0  0  0  0  0
   -4.9412   -0.1872   -0.0000 H   0  0  0  0  0  0
   -2.5355   -0.7309   -0.0000 H   0  0  0  0  0  0
   -0.3313   -0.6351    0.9028 H   0  0  0  0  0  0
   -0.3312   -0.6351   -0.9028 H   0  0  0  0  0  0
   -1.6993    3.4941    0.0000 H   0  0  0  0  0  0
    2.1399    1.2326    0.0000 C   0  0  0  0  0  0
    1.4616   -0.0760    0.0001 N   0  0  0  0  0  0
    2.2299   -1.2075    0.0001 C   0  0  0  0  0  0
    3.4614   -1.2032    0.0002 O   0  0  0  0  0  0
    1.5823   -2.3811    0.0001 N   0  0  0  0  0  0
    3.2292    1.1748    0.0000 H   0  0  0  0  0  0
    1.8456    1.8026    0.8818 H   0  0  0  0  0  0
    1.8456    1.8025   -0.8818 H   0  0  0  0  0  0
    0.5738   -2.4109    0.0001 H   0  0  0  0  0  0
    2.1061   -3.2441    0.0001 H   0  0  0  0  0  0
  1  2  1  0  0  0
  1  6  2  0  0  0
  1 14  1  0  0  0
  2  3  2  0  0  0
  3  4  1  0  0  0
  3  9  1  0  0  0
  4  5  2  0  0  0
  4 10  1  0  0  0
  5  6  1  0  0  0
  5 11  1  0  0  0
  6  7  1  0  0  0
  7  8  1  0  0  0
  8 12  1  0  0  0
  8 13  1  0  0  0
  8 16  1  0  0  0
 15 16  1  0  0  0
 15 20  1  0  0  0
 15 21  1  0  0  0
 15 22  1  0  0  0
 16 17  1  0  0  0
 17 18  2  0  0  0
 17 19  1  0  0  0
 19 23  1  0  0  0
 19 24  1  0  0  0
M  END
> <i_m_ct_stereo_status>
1

> <i_m_stars>
0

> <s_m_entry_id>
18551

> <s_m_entry_name>
Structure11785

> <s_pdb_PDB_TITLE>
P38 KINASE CRYSTAL STRUCTURE IN COMPLEX WITH SMALL MOLECULE INHIBITOR

> <s_pdb_PDB_ID>
1W7H

> <i_pdb_PDB_Model>
1

> <r_pdb_PDB_CRYST1_a>
45.771

> <r_pdb_PDB_CRYST1_b>
87.101

> <r_pdb_PDB_CRYST1_c>
126.337

> <r_pdb_PDB_CRYST1_alpha>
90

> <r_pdb_PDB_CRYST1_beta>
90

> <r_pdb_PDB_CRYST1_gamma>
90

> <s_pdb_PDB_CRYST1_Space_Group>
P 21 21 21

> <i_pdb_PDB_CRYST1_z>
4

> <s_pdb_PDB_CLASSIFICATION>
TRANSFERASE

> <s_pdb_PDB_DEPOSITION_DATE>
02-SEP-04

> <s_pdb_PDB_format_version>
3.0

> <r_pdb_PDB_RESOLUTION>
2.21

> <s_pdb_PDB_EXPDTA>
X-RAY DIFFRACTION

> <r_pdb_PDB_EXPDTA_TEMPERATURE>
100

> <r_pdb_PDB_EXPDTA_PH>
7

> <s_pdb_PDB_REMARK_350_Biomolecule_1_Transform_1_Chains>
A

> <s_pdb_PDB_REMARK_350_Biomolecule_1_Transform_1_Matrix_1>
1.000000 0.000000 0.000000   0.000000;0.000000 1.000000 0.000000   0.000000;0.000000 0.000000 1.000000   0.000000

> <s_m_Source_Path>
/scratch/alberto/systems/Trials

> <s_m_Source_File>
1w7h_prep.pdb

> <i_m_Source_File_Index>
1

> <s_m_source_file>
ReplaceWaterV2_9.maegz

> <i_m_source_file_index>
40

> <i_lp_mmshare_version>
49012

> <i_f3d_flags>
0

> <s_epik_input>
W2NIXTFbY0hdW2NIXW5bY0hdYzFPW0NIMl1OKFtDSDNdKUMoPU8pW05IMl0=

> <s_epik_cmdline>
J2VwaWtfcHl0aG9uJywgJy1waCcsICc3LjAnLCAnLXRuJywgJzgnLCAnLW1hJywgJzIwMCcsICctaW1hZScsICc8aW5maWxlLm1hZT4nLCAnLW9tYWUnLCAnPG91dGZpbGUubWFlPic=

> <r_epik_Ionization_Penalty>
  0.0038

> <r_epik_Ionization_Penalty_Charging>
  0.0000

> <r_epik_Ionization_Penalty_Neutral>
  0.0038

> <r_epik_State_Penalty>
  0.0027

> <r_epik_Charging_Adjusted_Penalty>
0.00268637902707873

> <i_epik_Tot_Q>
0

> <i_epik_Tot_abs_Q>
0

> <s_lp_Force_Field>
OPLS3e

> <r_lp_Energy>
27.688736

> <b_lp_Chiralities_Consistent>
1

> <s_lp_Variant>
Core,ligand-designer_replace-H2O_39-1

> <s_m_job_name>
ReplaceWaterV2_9

> <r_lp_tautomer_probability>
1

> <s_epik_Chemistry_Notes>
This compound contains an acetal/aminal-like group ( X-CH(R)-Y where X, Y are N, S, or O) that may be acid/base labile, releasing an aldehyde.

> <i_rge_num_r_groups>
1

> <r_rge_occupation_R1>
1

> <s_rge_R1>
ligand-designer_replace-H2O_39

> <s_rge_R1_s_m_title>
ligand-designer_replace-H2O_39

> <s_rge_R1_s_m_entry_id>
25708

> <s_rge_R1_s_m_entry_name>
ligand-designer_replace-H2O.smi-ligprep.58

> <s_rge_R1_s_m_smiles>
[*]N(C)C(=O)N

> <s_rge_R1_s_m_Source_File>
ligand-designer_replace-H2O.maegz-dedup.maegz-names.maegz

> <i_rge_R1_i_m_Source_File_Index>
40

> <s_rge_R1_s_m_Source_Path>
/Users/konze/projects/pathfinder/r-groups/final-r-groups

> <s_rge_R1_s_canvas_Unique_SMILES_Stereo>
NC(=O)N(Cl)C

> <i_rge_R1_i_lp_mmshare_version>
42013

> <i_rge_R1_i_f3d_flags>
0

> <i_rge_R1_i_m_stars>
0

> <s_rge_R1_s_m_subgroup_title>
ligand-designer_replace-H2O

> <s_rge_R1_s_m_subgroupid>
ligand-designer_replace-H2O.smi-ligprep111

> <b_rge_R1_b_m_subgroup_collapsed>
1

> <s_rge_R1_s_epik_input>
W0NIM11OKENsKUMoPU8pW05IMl0=

> <s_rge_R1_s_epik_cmdline>
J2VwaWtfcHl0aG9uJywgJy1waHQnLCAnMC43JywgJy1waCcsICc3LjAnLCAnLXRuJywgJzgnLCAnLW1hJywgJzIwMCcsICctaW1hZScsICc8aW5maWxlLm1hZT4nLCAnLW9tYWUnLCAnPG91dGZpbGUubWFlPic=

> <r_rge_R1_r_epik_Ionization_Penalty>
0

> <r_rge_R1_r_epik_Ionization_Penalty_Charging>
0

> <r_rge_R1_r_epik_Ionization_Penalty_Neutral>
0

> <r_rge_R1_r_epik_State_Penalty>
0

> <r_rge_R1_r_epik_Charging_Adjusted_Penalty>
0

> <i_rge_R1_i_epik_Tot_Q>
0

> <i_rge_R1_i_epik_Tot_abs_Q>
0

> <s_rge_R1_s_lp_Force_Field>
OPLS_2005

> <r_rge_R1_r_lp_Energy>
8.12966518523183

> <b_rge_R1_b_lp_Chiralities_Consistent>
1

> <s_rge_R1_s_lp_Variant>
Untitled_Molecule_000238-1

> <r_rge_R1_r_lp_tautomer_probability>
1

> <r_rge_R1_r_m_Shape_Sim>
0.388492255821205

> <s_m_subgroup_title>
ReplaceWaterV2_9-out1

> <s_m_subgroupid>
ReplaceWaterV2_9-out1

> <b_m_subgroup_collapsed>
0

$$$$
Core,ligand-designer_replace-H2O_40
                    3D
 Schrodinger Suite 2020-1.
 24 24  0  0  1  0            999 V2000
   -1.9471    1.3563    0.0000 C   0  0  0  0  0  0
   -2.7183    2.4737    0.0000 N   0  0  0  0  0  0
   -2.0887    3.6754    0.0000 C   0  0  0  0  0  0
   -0.6996    3.8027   -0.0000 C   0  0  0  0  0  0
    0.0760    2.6417   -0.0000 C   0  0  0  0  0  0
   -0.5491    1.3812    0.0000 C   0  0  0  0  0  0
    0.1129    0.1684    0.0000 O   0  0  0  0  0  0
    1.5067    0.1492   -0.0000 C   0  0  0  0  0  0
   -2.7216    4.5506    0.0000 H   0  0  0  0  0  0
   -0.2348    4.7777   -0.0000 H   0  0  0  0  0  0
    1.1514    2.7363   -0.0000 H   0  0  0  0  0  0
    1.8808    0.6387   -0.9026 H   0  0  0  0  0  0
    1.8808    0.6387    0.9026 H   0  0  0  0  0  0
   -2.4774    0.4152    0.0000 H   0  0  0  0  0  0
    5.5732   -1.1149   -0.0000 C   0  0  0  0  0  0
    4.1531   -0.7900   -0.0000 N   0  0  0  0  0  0
    3.1671   -1.7077   -0.0000 C   0  0  0  0  0  0
    3.3775   -2.9202   -0.0000 O   0  0  0  0  0  0
    1.9073   -1.2267    0.0000 N   0  0  0  0  0  0
    6.1647   -0.1995   -0.0000 H   0  0  0  0  0  0
    5.8385   -1.6932   -0.8859 H   0  0  0  0  0  0
    5.8385   -1.6932    0.8859 H   0  0  0  0  0  0
    3.9111    0.1899   -0.0000 H   0  0  0  0  0  0
    1.1573   -1.9030    0.0000 H   0  0  0  0  0  0
  1  2  1  0  0  0
  1  6  2  0  0  0
  1 14  1  0  0  0
  2  3  2  0  0  0
  3  4  1  0  0  0
  3  9  1  0  0  0
  4  5  2  0  0  0
  4 10  1  0  0  0
  5  6  1  0  0  0
  5 11  1  0  0  0
  6  7  1  0  0  0
  7  8  1  0  0  0
  8 12  1  0  0  0
  8 13  1  0  0  0
  8 19  1  0  0  0
 15 16  1  0  0  0
 15 20  1  0  0  0
 15 21  1  0  0  0
 15 22  1  0  0  0
 16 17  1  0  0  0
 16 23  1  0  0  0
 17 18  2  0  0  0
 17 19  1  0  0  0
 19 24  1  0  0  0
M  END
> <i_m_ct_stereo_status>
1

> <i_m_stars>
0

> <s_m_entry_id>
18552

> <s_m_entry_name>
Structure11785

> <s_pdb_PDB_TITLE>
P38 KINASE CRYSTAL STRUCTURE IN COMPLEX WITH SMALL MOLECULE INHIBITOR

> <s_pdb_PDB_ID>
1W7H

> <i_pdb_PDB_Model>
1

> <r_pdb_PDB_CRYST1_a>
45.771

> <r_pdb_PDB_CRYST1_b>
87.101

> <r_pdb_PDB_CRYST1_c>
126.337

> <r_pdb_PDB_CRYST1_alpha>
90

> <r_pdb_PDB_CRYST1_beta>
90

> <r_pdb_PDB_CRYST1_gamma>
90

> <s_pdb_PDB_CRYST1_Space_Group>
P 21 21 21

> <i_pdb_PDB_CRYST1_z>
4

> <s_pdb_PDB_CLASSIFICATION>
TRANSFERASE

> <s_pdb_PDB_DEPOSITION_DATE>
02-SEP-04

> <s_pdb_PDB_format_version>
3.0

> <r_pdb_PDB_RESOLUTION>
2.21

> <s_pdb_PDB_EXPDTA>
X-RAY DIFFRACTION

> <r_pdb_PDB_EXPDTA_TEMPERATURE>
100

> <r_pdb_PDB_EXPDTA_PH>
7

> <s_pdb_PDB_REMARK_350_Biomolecule_1_Transform_1_Chains>
A

> <s_pdb_PDB_REMARK_350_Biomolecule_1_Transform_1_Matrix_1>
1.000000 0.000000 0.000000   0.000000;0.000000 1.000000 0.000000   0.000000;0.000000 0.000000 1.000000   0.000000

> <s_m_Source_Path>
/scratch/alberto/systems/Trials

> <s_m_Source_File>
1w7h_prep.pdb

> <i_m_Source_File_Index>
1

> <s_m_source_file>
ReplaceWaterV2_9.maegz

> <i_m_source_file_index>
41

> <i_lp_mmshare_version>
49012

> <i_f3d_flags>
0

> <s_epik_input>
W2NIXTFbY0hdW2NIXW5bY0hdYzFPW0NIMl1bTkhdQyg9TylbTkhdW0NIM10=

> <s_epik_cmdline>
J2VwaWtfcHl0aG9uJywgJy1waCcsICc3LjAnLCAnLXRuJywgJzgnLCAnLW1hJywgJzIwMCcsICctaW1hZScsICc8aW5maWxlLm1hZT4nLCAnLW9tYWUnLCAnPG91dGZpbGUubWFlPic=

> <r_epik_Ionization_Penalty>
  0.0038

> <r_epik_Ionization_Penalty_Charging>
  0.0000

> <r_epik_Ionization_Penalty_Neutral>
  0.0038

> <r_epik_State_Penalty>
  0.0027

> <r_epik_Charging_Adjusted_Penalty>
0.00270965790404239

> <i_epik_Tot_Q>
0

> <i_epik_Tot_abs_Q>
0

> <s_lp_Force_Field>
OPLS3e

> <r_lp_Energy>
30.356457

> <b_lp_Chiralities_Consistent>
1

> <s_lp_Variant>
Core,ligand-designer_replace-H2O_40-1

> <s_m_job_name>
ReplaceWaterV2_9

> <r_lp_tautomer_probability>
1

> <s_epik_Chemistry_Notes>
This compound contains an acetal/aminal-like group ( X-CH(R)-Y where X, Y are N, S, or O) that may be acid/base labile, releasing an aldehyde.

> <i_rge_num_r_groups>
1

> <r_rge_occupation_R1>
1

> <s_rge_R1>
ligand-designer_replace-H2O_40

> <s_rge_R1_s_m_title>
ligand-designer_replace-H2O_40

> <s_rge_R1_s_m_entry_id>
25709

> <s_rge_R1_s_m_entry_name>
ligand-designer_replace-H2O.smi-ligprep.59

> <s_rge_R1_s_m_smiles>
[*]NC(=O)NC

> <s_rge_R1_s_m_Source_File>
ligand-designer_replace-H2O.maegz-dedup.maegz-names.maegz

> <i_rge_R1_i_m_Source_File_Index>
41

> <s_rge_R1_s_m_Source_Path>
/Users/konze/projects/pathfinder/r-groups/final-r-groups

> <s_rge_R1_s_canvas_Unique_SMILES_Stereo>
ClNC(=O)NC

> <i_rge_R1_i_lp_mmshare_version>
42013

> <i_rge_R1_i_f3d_flags>
0

> <i_rge_R1_i_m_stars>
0

> <s_rge_R1_s_m_subgroup_title>
ligand-designer_replace-H2O

> <s_rge_R1_s_m_subgroupid>
ligand-designer_replace-H2O.smi-ligprep111

> <b_rge_R1_b_m_subgroup_collapsed>
1

> <s_rge_R1_s_epik_input>
W0NIM11bTkhdQyg9TylbTkhdQ2w=

> <s_rge_R1_s_epik_cmdline>
J2VwaWtfcHl0aG9uJywgJy1waHQnLCAnMC43JywgJy1waCcsICc3LjAnLCAnLXRuJywgJzgnLCAnLW1hJywgJzIwMCcsICctaW1hZScsICc8aW5maWxlLm1hZT4nLCAnLW9tYWUnLCAnPG91dGZpbGUubWFlPic=

> <r_rge_R1_r_epik_Ionization_Penalty>
0

> <r_rge_R1_r_epik_Ionization_Penalty_Charging>
0

> <r_rge_R1_r_epik_Ionization_Penalty_Neutral>
0

> <r_rge_R1_r_epik_State_Penalty>
0

> <r_rge_R1_r_epik_Charging_Adjusted_Penalty>
0

> <i_rge_R1_i_epik_Tot_Q>
0

> <i_rge_R1_i_epik_Tot_abs_Q>
0

> <s_rge_R1_s_lp_Force_Field>
OPLS_2005

> <r_rge_R1_r_lp_Energy>
-1.47136027050517

> <b_rge_R1_b_lp_Chiralities_Consistent>
1

> <s_rge_R1_s_lp_Variant>
Untitled_Molecule_000239-1

> <r_rge_R1_r_lp_tautomer_probability>
1

> <r_rge_R1_r_m_Shape_Sim>
0.286354999474462

> <s_m_subgroup_title>
ReplaceWaterV2_9-out1

> <s_m_subgroupid>
ReplaceWaterV2_9-out1

> <b_m_subgroup_collapsed>
0

$$$$
Core,ligand-designer_replace-H2O_41
                    3D
 Schrodinger Suite 2020-1.
 28 28  0  0  1  0            999 V2000
   -2.4599    2.6535   -0.0101 C   0  0  0  0  0  0
   -3.7889    2.9319   -0.0116 N   0  0  0  0  0  0
   -4.6527    1.8858   -0.0013 C   0  0  0  0  0  0
   -4.2318    0.5560    0.0117 C   0  0  0  0  0  0
   -2.8610    0.2909    0.0133 C   0  0  0  0  0  0
   -1.9413    1.3552    0.0014 C   0  0  0  0  0  0
   -0.5675    1.2163    0.0003 O   0  0  0  0  0  0
    0.0001   -0.0935    0.0176 C   0  0  0  0  0  0
   -5.7047    2.1301   -0.0039 H   0  0  0  0  0  0
   -4.9498   -0.2508    0.0197 H   0  0  0  0  0  0
   -2.5332   -0.7375    0.0231 H   0  0  0  0  0  0
   -0.3277   -0.6201    0.9166 H   0  0  0  0  0  0
   -0.3640   -0.6654   -0.8385 H   0  0  0  0  0  0
   -1.7973    3.5066   -0.0180 H   0  0  0  0  0  0
    2.1261   -1.4588    0.0165 C   0  0  0  0  0  0
    1.5513   -0.0212   -0.0148 C   0  0  0  0  0  0
    2.0578    0.7316    1.2388 C   0  0  0  0  0  0
    2.0507    0.7265   -1.2843 C   0  0  0  0  0  0
    1.6389    0.1110   -2.4908 O   0  0  0  0  0  0
    3.2163   -1.4553   -0.0217 H   0  0  0  0  0  0
    1.7748   -2.0539   -0.8275 H   0  0  0  0  0  0
    1.8350   -1.9880    0.9251 H   0  0  0  0  0  0
    3.1476    0.7654    1.2738 H   0  0  0  0  0  0
    1.7187    0.2535    2.1591 H   0  0  0  0  0  0
    1.7033    1.7630    1.2613 H   0  0  0  0  0  0
    1.6925    1.7569   -1.2931 H   0  0  0  0  0  0
    3.1401    0.7847   -1.2922 H   0  0  0  0  0  0
    1.9693    0.6308   -3.2272 H   0  0  0  0  0  0
  1  2  1  0  0  0
  1  6  2  0  0  0
  1 14  1  0  0  0
  2  3  2  0  0  0
  3  4  1  0  0  0
  3  9  1  0  0  0
  4  5  2  0  0  0
  4 10  1  0  0  0
  5  6  1  0  0  0
  5 11  1  0  0  0
  6  7  1  0  0  0
  7  8  1  0  0  0
  8 12  1  0  0  0
  8 13  1  0  0  0
  8 16  1  0  0  0
 15 16  1  0  0  0
 15 20  1  0  0  0
 15 21  1  0  0  0
 15 22  1  0  0  0
 16 17  1  0  0  0
 16 18  1  0  0  0
 17 23  1  0  0  0
 17 24  1  0  0  0
 17 25  1  0  0  0
 18 19  1  0  0  0
 18 26  1  0  0  0
 18 27  1  0  0  0
 19 28  1  0  0  0
M  END
> <i_m_ct_stereo_status>
1

> <i_m_stars>
0

> <s_m_entry_id>
18553

> <s_m_entry_name>
Structure11785

> <s_pdb_PDB_TITLE>
P38 KINASE CRYSTAL STRUCTURE IN COMPLEX WITH SMALL MOLECULE INHIBITOR

> <s_pdb_PDB_ID>
1W7H

> <i_pdb_PDB_Model>
1

> <r_pdb_PDB_CRYST1_a>
45.771

> <r_pdb_PDB_CRYST1_b>
87.101

> <r_pdb_PDB_CRYST1_c>
126.337

> <r_pdb_PDB_CRYST1_alpha>
90

> <r_pdb_PDB_CRYST1_beta>
90

> <r_pdb_PDB_CRYST1_gamma>
90

> <s_pdb_PDB_CRYST1_Space_Group>
P 21 21 21

> <i_pdb_PDB_CRYST1_z>
4

> <s_pdb_PDB_CLASSIFICATION>
TRANSFERASE

> <s_pdb_PDB_DEPOSITION_DATE>
02-SEP-04

> <s_pdb_PDB_format_version>
3.0

> <r_pdb_PDB_RESOLUTION>
2.21

> <s_pdb_PDB_EXPDTA>
X-RAY DIFFRACTION

> <r_pdb_PDB_EXPDTA_TEMPERATURE>
100

> <r_pdb_PDB_EXPDTA_PH>
7

> <s_pdb_PDB_REMARK_350_Biomolecule_1_Transform_1_Chains>
A

> <s_pdb_PDB_REMARK_350_Biomolecule_1_Transform_1_Matrix_1>
1.000000 0.000000 0.000000   0.000000;0.000000 1.000000 0.000000   0.000000;0.000000 0.000000 1.000000   0.000000

> <s_m_Source_Path>
/scratch/alberto/systems/Trials

> <s_m_Source_File>
1w7h_prep.pdb

> <i_m_Source_File_Index>
1

> <s_m_source_file>
ReplaceWaterV2_9.maegz

> <i_m_source_file_index>
42

> <i_lp_mmshare_version>
49012

> <i_f3d_flags>
0

> <s_epik_input>
W2NIXTFbY0hdW2NIXW5bY0hdYzFPW0NIMl1DKFtDSDNdKShbQ0gzXSlbQ0gyXVtPSF0=

> <s_epik_cmdline>
J2VwaWtfcHl0aG9uJywgJy1waCcsICc3LjAnLCAnLXRuJywgJzgnLCAnLW1hJywgJzIwMCcsICctaW1hZScsICc8aW5maWxlLm1hZT4nLCAnLW9tYWUnLCAnPG91dGZpbGUubWFlPic=

> <r_epik_Ionization_Penalty>
  0.0025

> <r_epik_Ionization_Penalty_Charging>
  0.0000

> <r_epik_Ionization_Penalty_Neutral>
  0.0025

> <r_epik_State_Penalty>
  0.0018

> <r_epik_Charging_Adjusted_Penalty>
0.00176657799775199

> <i_epik_Tot_Q>
0

> <i_epik_Tot_abs_Q>
0

> <s_lp_Force_Field>
OPLS3e

> <r_lp_Energy>
16.212465

> <b_lp_Chiralities_Consistent>
1

> <s_lp_Variant>
Core,ligand-designer_replace-H2O_41-1

> <s_m_job_name>
ReplaceWaterV2_9

> <r_lp_tautomer_probability>
1

> <i_rge_num_r_groups>
1

> <r_rge_occupation_R1>
1

> <s_rge_R1>
ligand-designer_replace-H2O_41

> <s_rge_R1_s_m_title>
ligand-designer_replace-H2O_41

> <s_rge_R1_s_m_entry_id>
25710

> <s_rge_R1_s_m_entry_name>
ligand-designer_replace-H2O.smi-ligprep.70

> <s_rge_R1_s_m_smiles>
[*]C(C)(C)CO

> <s_rge_R1_s_m_Source_File>
ligand-designer_replace-H2O.maegz-dedup.maegz-names.maegz

> <i_rge_R1_i_m_Source_File_Index>
42

> <s_rge_R1_s_m_Source_Path>
/Users/konze/projects/pathfinder/r-groups/final-r-groups

> <s_rge_R1_s_canvas_Unique_SMILES_Stereo>
CC(Cl)(C)CO

> <i_rge_R1_i_lp_mmshare_version>
42013

> <i_rge_R1_i_f3d_flags>
0

> <i_rge_R1_i_m_stars>
0

> <s_rge_R1_s_m_subgroup_title>
ligand-designer_replace-H2O

> <s_rge_R1_s_m_subgroupid>
ligand-designer_replace-H2O.smi-ligprep111

> <b_rge_R1_b_m_subgroup_collapsed>
1

> <s_rge_R1_s_epik_input>
W0NIM11DKENsKShbQ0gzXSlbQ0gyXVtPSF0=

> <s_rge_R1_s_epik_cmdline>
J2VwaWtfcHl0aG9uJywgJy1waHQnLCAnMC43JywgJy1waCcsICc3LjAnLCAnLXRuJywgJzgnLCAnLW1hJywgJzIwMCcsICctaW1hZScsICc8aW5maWxlLm1hZT4nLCAnLW9tYWUnLCAnPG91dGZpbGUubWFlPic=

> <r_rge_R1_r_epik_Ionization_Penalty>
0

> <r_rge_R1_r_epik_Ionization_Penalty_Charging>
0

> <r_rge_R1_r_epik_Ionization_Penalty_Neutral>
0

> <r_rge_R1_r_epik_State_Penalty>
0

> <r_rge_R1_r_epik_Charging_Adjusted_Penalty>
0

> <i_rge_R1_i_epik_Tot_Q>
0

> <i_rge_R1_i_epik_Tot_abs_Q>
0

> <s_rge_R1_s_lp_Force_Field>
OPLS_2005

> <r_rge_R1_r_lp_Energy>
2.84433379869656

> <b_rge_R1_b_lp_Chiralities_Consistent>
1

> <s_rge_R1_s_lp_Variant>
Untitled_Molecule_000255-1

> <r_rge_R1_r_lp_tautomer_probability>
1

> <r_rge_R1_r_m_Shape_Sim>
0.708157192830962

> <s_m_subgroup_title>
ReplaceWaterV2_9-out1

> <s_m_subgroupid>
ReplaceWaterV2_9-out1

> <b_m_subgroup_collapsed>
0

$$$$
Core,ligand-designer_replace-H2O_42
                    3D
 Schrodinger Suite 2020-1.
 28 28  0  0  1  0            999 V2000
    5.3706    1.4510    2.4061 C   0  0  0  0  0  0
    6.1339    2.0012    3.3850 N   0  0  0  0  0  0
    5.4957    2.5783    4.4337 C   0  0  0  0  0  0
    4.1058    2.6271    4.5408 C   0  0  0  0  0  0
    3.3386    2.0558    3.5236 C   0  0  0  0  0  0
    3.9726    1.4483    2.4245 C   0  0  0  0  0  0
    3.3209    0.8499    1.3641 O   0  0  0  0  0  0
    1.8970    0.7990    1.3658 C   0  0  0  0  0  0
    6.1222    3.0092    5.2008 H   0  0  0  0  0  0
    3.6329    3.0960    5.3910 H   0  0  0  0  0  0
    2.2627    2.0933    3.6038 H   0  0  0  0  0  0
    1.5501    0.2884    2.2653 H   0  0  0  0  0  0
    1.4895    1.8116    1.3678 H   0  0  0  0  0  0
    5.9067    0.9978    1.5852 H   0  0  0  0  0  0
   -0.7857   -0.8215    1.0950 C   0  0  0  0  0  0
   -0.1006   -0.1034   -0.0875 C   0  0  0  0  0  0
   -0.4330   -0.7919   -1.4259 C   0  0  0  0  0  0
   -0.6661    1.1945   -0.1292 O   0  0  0  0  0  0
    1.4335    0.0345    0.1092 C   0  0  0  0  0  0
   -0.3703   -1.8189    1.2428 H   0  0  0  0  0  0
   -1.8573   -0.9381    0.9257 H   0  0  0  0  0  0
   -0.6721   -0.2771    2.0332 H   0  0  0  0  0  0
   -0.0472   -1.8117   -1.4508 H   0  0  0  0  0  0
    0.0005   -0.2581   -2.2728 H   0  0  0  0  0  0
   -1.5096   -0.8474   -1.5944 H   0  0  0  0  0  0
   -0.2804    1.6712   -0.8678 H   0  0  0  0  0  0
    1.8638    0.5213   -0.7680 H   0  0  0  0  0  0
    1.8753   -0.9631    0.1302 H   0  0  0  0  0  0
  1  2  1  0  0  0
  1  6  2  0  0  0
  1 14  1  0  0  0
  2  3  2  0  0  0
  3  4  1  0  0  0
  3  9  1  0  0  0
  4  5  2  0  0  0
  4 10  1  0  0  0
  5  6  1  0  0  0
  5 11  1  0  0  0
  6  7  1  0  0  0
  7  8  1  0  0  0
  8 12  1  0  0  0
  8 13  1  0  0  0
  8 19  1  0  0  0
 15 16  1  0  0  0
 15 20  1  0  0  0
 15 21  1  0  0  0
 15 22  1  0  0  0
 16 17  1  0  0  0
 16 18  1  0  0  0
 16 19  1  0  0  0
 17 23  1  0  0  0
 17 24  1  0  0  0
 17 25  1  0  0  0
 18 26  1  0  0  0
 19 27  1  0  0  0
 19 28  1  0  0  0
M  END
> <i_m_ct_stereo_status>
1

> <i_m_stars>
0

> <s_m_entry_id>
18554

> <s_m_entry_name>
Structure11785

> <s_pdb_PDB_TITLE>
P38 KINASE CRYSTAL STRUCTURE IN COMPLEX WITH SMALL MOLECULE INHIBITOR

> <s_pdb_PDB_ID>
1W7H

> <i_pdb_PDB_Model>
1

> <r_pdb_PDB_CRYST1_a>
45.771

> <r_pdb_PDB_CRYST1_b>
87.101

> <r_pdb_PDB_CRYST1_c>
126.337

> <r_pdb_PDB_CRYST1_alpha>
90

> <r_pdb_PDB_CRYST1_beta>
90

> <r_pdb_PDB_CRYST1_gamma>
90

> <s_pdb_PDB_CRYST1_Space_Group>
P 21 21 21

> <i_pdb_PDB_CRYST1_z>
4

> <s_pdb_PDB_CLASSIFICATION>
TRANSFERASE

> <s_pdb_PDB_DEPOSITION_DATE>
02-SEP-04

> <s_pdb_PDB_format_version>
3.0

> <r_pdb_PDB_RESOLUTION>
2.21

> <s_pdb_PDB_EXPDTA>
X-RAY DIFFRACTION

> <r_pdb_PDB_EXPDTA_TEMPERATURE>
100

> <r_pdb_PDB_EXPDTA_PH>
7

> <s_pdb_PDB_REMARK_350_Biomolecule_1_Transform_1_Chains>
A

> <s_pdb_PDB_REMARK_350_Biomolecule_1_Transform_1_Matrix_1>
1.000000 0.000000 0.000000   0.000000;0.000000 1.000000 0.000000   0.000000;0.000000 0.000000 1.000000   0.000000

> <s_m_Source_Path>
/scratch/alberto/systems/Trials

> <s_m_Source_File>
1w7h_prep.pdb

> <i_m_Source_File_Index>
1

> <s_m_source_file>
ReplaceWaterV2_9.maegz

> <i_m_source_file_index>
43

> <i_lp_mmshare_version>
49012

> <i_f3d_flags>
0

> <s_epik_input>
W2NIXTFbY0hdW2NIXW5bY0hdYzFPW0NIMl1bQ0gyXUMoW0NIM10pKFtDSDNdKVtPSF0=

> <s_epik_cmdline>
J2VwaWtfcHl0aG9uJywgJy1waCcsICc3LjAnLCAnLXRuJywgJzgnLCAnLW1hJywgJzIwMCcsICctaW1hZScsICc8aW5maWxlLm1hZT4nLCAnLW9tYWUnLCAnPG91dGZpbGUubWFlPic=

> <r_epik_Ionization_Penalty>
  0.0124

> <r_epik_Ionization_Penalty_Charging>
  0.0000

> <r_epik_Ionization_Penalty_Neutral>
  0.0124

> <r_epik_State_Penalty>
  0.0096

> <r_epik_Charging_Adjusted_Penalty>
0.00956310571365698

> <i_epik_Tot_Q>
0

> <i_epik_Tot_abs_Q>
0

> <s_lp_Force_Field>
OPLS3e

> <r_lp_Energy>
14.867753

> <b_lp_Chiralities_Consistent>
1

> <s_lp_Variant>
Core,ligand-designer_replace-H2O_42-1

> <s_m_job_name>
ReplaceWaterV2_9

> <r_lp_tautomer_probability>
1

> <i_rge_num_r_groups>
1

> <r_rge_occupation_R1>
1

> <s_rge_R1>
ligand-designer_replace-H2O_42

> <s_rge_R1_s_m_title>
ligand-designer_replace-H2O_42

> <s_rge_R1_s_m_entry_id>
25711

> <s_rge_R1_s_m_entry_name>
ligand-designer_replace-H2O.smi-ligprep.71

> <s_rge_R1_s_m_smiles>
[*]CC(C)(C)O

> <s_rge_R1_s_m_Source_File>
ligand-designer_replace-H2O.maegz-dedup.maegz-names.maegz

> <i_rge_R1_i_m_Source_File_Index>
43

> <s_rge_R1_s_m_Source_Path>
/Users/konze/projects/pathfinder/r-groups/final-r-groups

> <s_rge_R1_s_canvas_Unique_SMILES_Stereo>
CC(CCl)(C)O

> <i_rge_R1_i_lp_mmshare_version>
42013

> <i_rge_R1_i_f3d_flags>
0

> <i_rge_R1_i_m_stars>
0

> <s_rge_R1_s_m_subgroup_title>
ligand-designer_replace-H2O

> <s_rge_R1_s_m_subgroupid>
ligand-designer_replace-H2O.smi-ligprep111

> <b_rge_R1_b_m_subgroup_collapsed>
1

> <s_rge_R1_s_epik_input>
W0NIM11DKFtDSDNdKShbT0hdKVtDSDJdQ2w=

> <s_rge_R1_s_epik_cmdline>
J2VwaWtfcHl0aG9uJywgJy1waHQnLCAnMC43JywgJy1waCcsICc3LjAnLCAnLXRuJywgJzgnLCAnLW1hJywgJzIwMCcsICctaW1hZScsICc8aW5maWxlLm1hZT4nLCAnLW9tYWUnLCAnPG91dGZpbGUubWFlPic=

> <r_rge_R1_r_epik_Ionization_Penalty>
0

> <r_rge_R1_r_epik_Ionization_Penalty_Charging>
0

> <r_rge_R1_r_epik_Ionization_Penalty_Neutral>
0

> <r_rge_R1_r_epik_State_Penalty>
0

> <r_rge_R1_r_epik_Charging_Adjusted_Penalty>
0

> <i_rge_R1_i_epik_Tot_Q>
0

> <i_rge_R1_i_epik_Tot_abs_Q>
0

> <s_rge_R1_s_lp_Force_Field>
OPLS_2005

> <r_rge_R1_r_lp_Energy>
1.19314130517085

> <b_rge_R1_b_lp_Chiralities_Consistent>
1

> <s_rge_R1_s_lp_Variant>
Untitled_Molecule_000257-1

> <r_rge_R1_r_lp_tautomer_probability>
1

> <r_rge_R1_r_m_Shape_Sim>
0.703954944793566

> <s_m_subgroup_title>
ReplaceWaterV2_9-out1

> <s_m_subgroupid>
ReplaceWaterV2_9-out1

> <b_m_subgroup_collapsed>
0

$$$$
Core,ligand-designer_replace-H2O_42
                    3D
 Schrodinger Suite 2020-1.
 29 29  0  0  1  0            999 V2000
    3.3086    2.0538    3.5317 C   0  0  0  0  0  0
    4.0344    2.6148    4.5197 N   0  3  0  0  0  0
    5.3817    2.6311    4.5273 C   0  0  0  0  0  0
    6.0783    2.0446    3.4689 C   0  0  0  0  0  0
    5.3619    1.4524    2.4245 C   0  0  0  0  0  0
    3.9614    1.4480    2.4422 C   0  0  0  0  0  0
    3.3168    0.8437    1.3810 O   0  0  0  0  0  0
    1.8924    0.7968    1.3715 C   0  0  0  0  0  0
    5.8477    3.1105    5.3759 H   0  0  0  0  0  0
    7.1586    2.0475    3.4562 H   0  0  0  0  0  0
    5.8932    0.9956    1.6020 H   0  0  0  0  0  0
    1.5370    0.2892    2.2694 H   0  0  0  0  0  0
    1.4882    1.8107    1.3685 H   0  0  0  0  0  0
    2.2379    2.1159    3.6589 H   0  0  0  0  0  0
   -0.7882   -0.8242    1.0891 C   0  0  0  0  0  0
   -0.0990   -0.1038   -0.0899 C   0  0  0  0  0  0
   -0.4282   -0.7882   -1.4311 C   0  0  0  0  0  0
   -0.6620    1.1952   -0.1308 O   0  0  0  0  0  0
    1.4346    0.0321    0.1128 C   0  0  0  0  0  0
   -0.3733   -1.8220    1.2364 H   0  0  0  0  0  0
   -1.8592   -0.9408    0.9155 H   0  0  0  0  0  0
   -0.6790   -0.2815    2.0286 H   0  0  0  0  0  0
   -0.0427   -1.8082   -1.4586 H   0  0  0  0  0  0
    0.0074   -0.2517   -2.2751 H   0  0  0  0  0  0
   -1.5046   -0.8428   -1.6027 H   0  0  0  0  0  0
   -0.3006    1.6604   -0.8888 H   0  0  0  0  0  0
    1.8689    0.5179   -0.7630 H   0  0  0  0  0  0
    1.8744   -0.9663    0.1358 H   0  0  0  0  0  0
    3.5441    3.0439    5.2921 H   0  0  0  0  0  0
  1  2  1  0  0  0
  1  6  2  0  0  0
  1 14  1  0  0  0
  2  3  2  0  0  0
  2 29  1  0  0  0
  3  4  1  0  0  0
  3  9  1  0  0  0
  4  5  2  0  0  0
  4 10  1  0  0  0
  5  6  1  0  0  0
  5 11  1  0  0  0
  6  7  1  0  0  0
  7  8  1  0  0  0
  8 12  1  0  0  0
  8 13  1  0  0  0
  8 19  1  0  0  0
 15 16  1  0  0  0
 15 20  1  0  0  0
 15 21  1  0  0  0
 15 22  1  0  0  0
 16 17  1  0  0  0
 16 18  1  0  0  0
 16 19  1  0  0  0
 17 23  1  0  0  0
 17 24  1  0  0  0
 17 25  1  0  0  0
 18 26  1  0  0  0
 19 27  1  0  0  0
 19 28  1  0  0  0
M  CHG  1   2   1
M  END
> <i_m_ct_stereo_status>
1

> <i_m_stars>
0

> <s_m_entry_id>
18555

> <s_m_entry_name>
Structure11785

> <s_pdb_PDB_TITLE>
P38 KINASE CRYSTAL STRUCTURE IN COMPLEX WITH SMALL MOLECULE INHIBITOR

> <s_pdb_PDB_ID>
1W7H

> <i_pdb_PDB_Model>
1

> <r_pdb_PDB_CRYST1_a>
45.771

> <r_pdb_PDB_CRYST1_b>
87.101

> <r_pdb_PDB_CRYST1_c>
126.337

> <r_pdb_PDB_CRYST1_alpha>
90

> <r_pdb_PDB_CRYST1_beta>
90

> <r_pdb_PDB_CRYST1_gamma>
90

> <s_pdb_PDB_CRYST1_Space_Group>
P 21 21 21

> <i_pdb_PDB_CRYST1_z>
4

> <s_pdb_PDB_CLASSIFICATION>
TRANSFERASE

> <s_pdb_PDB_DEPOSITION_DATE>
02-SEP-04

> <s_pdb_PDB_format_version>
3.0

> <r_pdb_PDB_RESOLUTION>
2.21

> <s_pdb_PDB_EXPDTA>
X-RAY DIFFRACTION

> <r_pdb_PDB_EXPDTA_TEMPERATURE>
100

> <r_pdb_PDB_EXPDTA_PH>
7

> <s_pdb_PDB_REMARK_350_Biomolecule_1_Transform_1_Chains>
A

> <s_pdb_PDB_REMARK_350_Biomolecule_1_Transform_1_Matrix_1>
1.000000 0.000000 0.000000   0.000000;0.000000 1.000000 0.000000   0.000000;0.000000 0.000000 1.000000   0.000000

> <s_m_Source_Path>
/scratch/alberto/systems/Trials

> <s_m_Source_File>
1w7h_prep.pdb

> <i_m_Source_File_Index>
1

> <s_m_source_file>
ReplaceWaterV2_9.maegz

> <i_m_source_file_index>
43

> <i_lp_mmshare_version>
49012

> <i_f3d_flags>
0

> <s_epik_input>
W2NIXTFbY0hdW2NIXW5bY0hdYzFPW0NIMl1bQ0gyXUMoW0NIM10pKFtDSDNdKVtPSF0=

> <s_epik_cmdline>
J2VwaWtfcHl0aG9uJywgJy1waCcsICc3LjAnLCAnLXRuJywgJzgnLCAnLW1hJywgJzIwMCcsICctaW1hZScsICc8aW5maWxlLm1hZT4nLCAnLW9tYWUnLCAnPG91dGZpbGUubWFlPic=

> <r_epik_Ionization_Penalty>
  2.2990

> <r_epik_Ionization_Penalty_Charging>
  2.2990

> <r_epik_Ionization_Penalty_Neutral>
  0.0000

> <r_epik_State_Penalty>
  2.4496

> <r_epik_Charging_Adjusted_Penalty>
4.74864014476262

> <i_epik_Tot_Q>
1

> <i_epik_Tot_abs_Q>
1

> <s_lp_Force_Field>
OPLS3e

> <r_lp_Energy>
18.418181

> <b_lp_Chiralities_Consistent>
1

> <s_lp_Variant>
Core,ligand-designer_replace-H2O_42-2

> <s_m_job_name>
ReplaceWaterV2_9

> <i_rge_num_r_groups>
1

> <r_rge_occupation_R1>
1

> <s_rge_R1>
ligand-designer_replace-H2O_42

> <s_rge_R1_s_m_title>
ligand-designer_replace-H2O_42

> <s_rge_R1_s_m_entry_id>
25711

> <s_rge_R1_s_m_entry_name>
ligand-designer_replace-H2O.smi-ligprep.71

> <s_rge_R1_s_m_smiles>
[*]CC(C)(C)O

> <s_rge_R1_s_m_Source_File>
ligand-designer_replace-H2O.maegz-dedup.maegz-names.maegz

> <i_rge_R1_i_m_Source_File_Index>
43

> <s_rge_R1_s_m_Source_Path>
/Users/konze/projects/pathfinder/r-groups/final-r-groups

> <s_rge_R1_s_canvas_Unique_SMILES_Stereo>
CC(CCl)(C)O

> <i_rge_R1_i_lp_mmshare_version>
42013

> <i_rge_R1_i_f3d_flags>
0

> <i_rge_R1_i_m_stars>
0

> <s_rge_R1_s_m_subgroup_title>
ligand-designer_replace-H2O

> <s_rge_R1_s_m_subgroupid>
ligand-designer_replace-H2O.smi-ligprep111

> <b_rge_R1_b_m_subgroup_collapsed>
1

> <s_rge_R1_s_epik_input>
W0NIM11DKFtDSDNdKShbT0hdKVtDSDJdQ2w=

> <s_rge_R1_s_epik_cmdline>
J2VwaWtfcHl0aG9uJywgJy1waHQnLCAnMC43JywgJy1waCcsICc3LjAnLCAnLXRuJywgJzgnLCAnLW1hJywgJzIwMCcsICctaW1hZScsICc8aW5maWxlLm1hZT4nLCAnLW9tYWUnLCAnPG91dGZpbGUubWFlPic=

> <r_rge_R1_r_epik_Ionization_Penalty>
0

> <r_rge_R1_r_epik_Ionization_Penalty_Charging>
0

> <r_rge_R1_r_epik_Ionization_Penalty_Neutral>
0

> <r_rge_R1_r_epik_State_Penalty>
0

> <r_rge_R1_r_epik_Charging_Adjusted_Penalty>
0

> <i_rge_R1_i_epik_Tot_Q>
0

> <i_rge_R1_i_epik_Tot_abs_Q>
0

> <s_rge_R1_s_lp_Force_Field>
OPLS_2005

> <r_rge_R1_r_lp_Energy>
1.19314130517085

> <b_rge_R1_b_lp_Chiralities_Consistent>
1

> <s_rge_R1_s_lp_Variant>
Untitled_Molecule_000257-1

> <r_rge_R1_r_lp_tautomer_probability>
1

> <r_rge_R1_r_m_Shape_Sim>
0.703954944793566

> <s_m_subgroup_title>
ReplaceWaterV2_9-out1

> <s_m_subgroupid>
ReplaceWaterV2_9-out1

> <b_m_subgroup_collapsed>
0

$$$$
Core,ligand-designer_replace-H2O_43
                    3D
 Schrodinger Suite 2020-1.
 21 21  0  0  1  0            999 V2000
   -1.9585    1.4233    0.0000 C   0  0  0  0  0  0
   -2.6663    2.5821    0.0000 N   0  0  0  0  0  0
   -1.9708    3.7468    0.0000 C   0  0  0  0  0  0
   -0.5767    3.7966   -0.0000 C   0  0  0  0  0  0
    0.1328    2.5941   -0.0000 C   0  0  0  0  0  0
   -0.5613    1.3706    0.0000 C   0  0  0  0  0  0
    0.0321    0.1238    0.0000 O   0  0  0  0  0  0
    1.4534    0.0387   -0.0000 C   0  0  0  0  0  0
   -2.5542    4.6558    0.0000 H   0  0  0  0  0  0
   -0.0575    4.7437   -0.0000 H   0  0  0  0  0  0
    1.2115    2.6290   -0.0000 H   0  0  0  0  0  0
    1.8816    0.5013   -0.8901 H   0  0  0  0  0  0
    1.8817    0.5013    0.8902 H   0  0  0  0  0  0
   -2.5396    0.5129    0.0000 H   0  0  0  0  0  0
    3.8683   -1.6813   -0.0000 C   0  0  0  0  0  0
    1.9855   -1.7719   -0.0000 S   0  0  0  0  0  0
    1.5625   -2.3722   -1.2695 O   0  0  0  0  0  0
    1.5625   -2.3722    1.2695 O   0  0  0  0  0  0
    4.2689   -2.6945    0.0000 H   0  0  0  0  0  0
    4.1971   -1.1502    0.8927 H   0  0  0  0  0  0
    4.1971   -1.1502   -0.8927 H   0  0  0  0  0  0
  1  2  1  0  0  0
  1  6  2  0  0  0
  1 14  1  0  0  0
  2  3  2  0  0  0
  3  4  1  0  0  0
  3  9  1  0  0  0
  4  5  2  0  0  0
  4 10  1  0  0  0
  5  6  1  0  0  0
  5 11  1  0  0  0
  6  7  1  0  0  0
  7  8  1  0  0  0
  8 12  1  0  0  0
  8 13  1  0  0  0
  8 16  1  0  0  0
 15 16  1  0  0  0
 15 19  1  0  0  0
 15 20  1  0  0  0
 15 21  1  0  0  0
 16 17  2  0  0  0
 16 18  2  0  0  0
M  END
> <i_m_ct_stereo_status>
1

> <i_m_stars>
0

> <s_m_entry_id>
18556

> <s_m_entry_name>
Structure11785

> <s_pdb_PDB_TITLE>
P38 KINASE CRYSTAL STRUCTURE IN COMPLEX WITH SMALL MOLECULE INHIBITOR

> <s_pdb_PDB_ID>
1W7H

> <i_pdb_PDB_Model>
1

> <r_pdb_PDB_CRYST1_a>
45.771

> <r_pdb_PDB_CRYST1_b>
87.101

> <r_pdb_PDB_CRYST1_c>
126.337

> <r_pdb_PDB_CRYST1_alpha>
90

> <r_pdb_PDB_CRYST1_beta>
90

> <r_pdb_PDB_CRYST1_gamma>
90

> <s_pdb_PDB_CRYST1_Space_Group>
P 21 21 21

> <i_pdb_PDB_CRYST1_z>
4

> <s_pdb_PDB_CLASSIFICATION>
TRANSFERASE

> <s_pdb_PDB_DEPOSITION_DATE>
02-SEP-04

> <s_pdb_PDB_format_version>
3.0

> <r_pdb_PDB_RESOLUTION>
2.21

> <s_pdb_PDB_EXPDTA>
X-RAY DIFFRACTION

> <r_pdb_PDB_EXPDTA_TEMPERATURE>
100

> <r_pdb_PDB_EXPDTA_PH>
7

> <s_pdb_PDB_REMARK_350_Biomolecule_1_Transform_1_Chains>
A

> <s_pdb_PDB_REMARK_350_Biomolecule_1_Transform_1_Matrix_1>
1.000000 0.000000 0.000000   0.000000;0.000000 1.000000 0.000000   0.000000;0.000000 0.000000 1.000000   0.000000

> <s_m_Source_Path>
/scratch/alberto/systems/Trials

> <s_m_Source_File>
1w7h_prep.pdb

> <i_m_Source_File_Index>
1

> <s_m_source_file>
ReplaceWaterV2_9.maegz

> <i_m_source_file_index>
44

> <i_lp_mmshare_version>
49012

> <i_f3d_flags>
0

> <s_epik_input>
W2NIXTFbY0hdW2NIXW5bY0hdYzFPW0NIMl1TKD1PKSg9TylbQ0gzXQ==

> <s_epik_cmdline>
J2VwaWtfcHl0aG9uJywgJy1waCcsICc3LjAnLCAnLXRuJywgJzgnLCAnLW1hJywgJzIwMCcsICctaW1hZScsICc8aW5maWxlLm1hZT4nLCAnLW9tYWUnLCAnPG91dGZpbGUubWFlPic=

> <r_epik_Ionization_Penalty>
  0.0015

> <r_epik_Ionization_Penalty_Charging>
  0.0000

> <r_epik_Ionization_Penalty_Neutral>
  0.0015

> <r_epik_State_Penalty>
  0.0010

> <r_epik_Charging_Adjusted_Penalty>
0.00103740626926301

> <i_epik_Tot_Q>
0

> <i_epik_Tot_abs_Q>
0

> <s_lp_Force_Field>
OPLS3e

> <r_lp_Energy>
11.146954

> <b_lp_Chiralities_Consistent>
1

> <s_lp_Variant>
Core,ligand-designer_replace-H2O_43-1

> <s_m_job_name>
ReplaceWaterV2_9

> <r_lp_tautomer_probability>
1

> <i_rge_num_r_groups>
1

> <r_rge_occupation_R1>
1

> <s_rge_R1>
ligand-designer_replace-H2O_43

> <s_rge_R1_s_m_title>
ligand-designer_replace-H2O_43

> <s_rge_R1_s_m_entry_id>
25712

> <s_rge_R1_s_m_entry_name>
ligand-designer_replace-H2O.smi-ligprep.85

> <s_rge_R1_s_m_smiles>
[*]S(=O)(=O)C

> <s_rge_R1_s_m_Source_File>
ligand-designer_replace-H2O.maegz-dedup.maegz-names.maegz

> <i_rge_R1_i_m_Source_File_Index>
44

> <s_rge_R1_s_m_Source_Path>
/Users/konze/projects/pathfinder/r-groups/final-r-groups

> <s_rge_R1_s_canvas_Unique_SMILES_Stereo>
CS(=O)(=O)Cl

> <i_rge_R1_i_lp_mmshare_version>
42013

> <i_rge_R1_i_f3d_flags>
0

> <i_rge_R1_i_m_stars>
0

> <s_rge_R1_s_m_subgroup_title>
ligand-designer_replace-H2O

> <s_rge_R1_s_m_subgroupid>
ligand-designer_replace-H2O.smi-ligprep111

> <b_rge_R1_b_m_subgroup_collapsed>
1

> <s_rge_R1_s_epik_input>
W0NIM11TKD1PKSg9TylDbA==

> <s_rge_R1_s_epik_cmdline>
J2VwaWtfcHl0aG9uJywgJy1waHQnLCAnMC43JywgJy1waCcsICc3LjAnLCAnLXRuJywgJzgnLCAnLW1hJywgJzIwMCcsICctaW1hZScsICc8aW5maWxlLm1hZT4nLCAnLW9tYWUnLCAnPG91dGZpbGUubWFlPic=

> <r_rge_R1_r_epik_Ionization_Penalty>
0

> <r_rge_R1_r_epik_Ionization_Penalty_Charging>
0

> <r_rge_R1_r_epik_Ionization_Penalty_Neutral>
0

> <r_rge_R1_r_epik_State_Penalty>
0

> <r_rge_R1_r_epik_Charging_Adjusted_Penalty>
0

> <i_rge_R1_i_epik_Tot_Q>
0

> <i_rge_R1_i_epik_Tot_abs_Q>
0

> <s_rge_R1_s_lp_Force_Field>
OPLS_2005

> <r_rge_R1_r_lp_Energy>
-3.35590417169485

> <b_rge_R1_b_lp_Chiralities_Consistent>
1

> <s_rge_R1_s_lp_Variant>
Untitled_Molecule_000311-1

> <r_rge_R1_r_lp_tautomer_probability>
1

> <r_rge_R1_r_m_Shape_Sim>
0.352688708302784

> <s_m_subgroup_title>
ReplaceWaterV2_9-out1

> <s_m_subgroupid>
ReplaceWaterV2_9-out1

> <b_m_subgroup_collapsed>
0

$$$$
Core,ligand-designer_replace-H2O_44
                    3D
 Schrodinger Suite 2020-1.
 20 20  0  0  1  0            999 V2000
   -1.8887    1.3138    0.0767 C   0  0  0  0  0  0
   -2.6212    2.4568    0.0487 N   0  0  0  0  0  0
   -1.9508    3.6352   -0.0012 C   0  0  0  0  0  0
   -0.5583    3.7141   -0.0233 C   0  0  0  0  0  0
    0.1769    2.5274    0.0051 C   0  0  0  0  0  0
   -0.4908    1.2904    0.0554 C   0  0  0  0  0  0
    0.1290    0.0572    0.0893 O   0  0  0  0  0  0
    1.5499   -0.0003    0.0105 C   0  0  0  0  0  0
   -2.5529    4.5315   -0.0228 H   0  0  0  0  0  0
   -0.0598    4.6715   -0.0616 H   0  0  0  0  0  0
    1.2549    2.5852   -0.0104 H   0  0  0  0  0  0
    1.9252    0.4831   -0.8928 H   0  0  0  0  0  0
    2.0136    0.4589    0.8844 H   0  0  0  0  0  0
   -2.4503    0.3919    0.1160 H   0  0  0  0  0  0
    1.4695   -2.4725    1.4358 N   0  0  0  0  0  0
    2.1202   -1.7988   -0.0463 S   0  0  0  0  0  0
    3.5824   -1.8196    0.0631 O   0  0  0  0  0  0
    1.4443   -2.4612   -1.1665 O   0  0  0  0  0  0
    1.8816   -2.0895    2.2905 H   0  0  0  0  0  0
    0.4473   -2.5129    1.4662 H   0  0  0  0  0  0
  1  2  1  0  0  0
  1  6  2  0  0  0
  1 14  1  0  0  0
  2  3  2  0  0  0
  3  4  1  0  0  0
  3  9  1  0  0  0
  4  5  2  0  0  0
  4 10  1  0  0  0
  5  6  1  0  0  0
  5 11  1  0  0  0
  6  7  1  0  0  0
  7  8  1  0  0  0
  8 12  1  0  0  0
  8 13  1  0  0  0
  8 16  1  0  0  0
 15 16  1  0  0  0
 15 19  1  0  0  0
 15 20  1  0  0  0
 16 17  2  0  0  0
 16 18  2  0  0  0
M  END
> <i_m_ct_stereo_status>
1

> <i_m_stars>
0

> <s_m_entry_id>
18557

> <s_m_entry_name>
Structure11785

> <s_pdb_PDB_TITLE>
P38 KINASE CRYSTAL STRUCTURE IN COMPLEX WITH SMALL MOLECULE INHIBITOR

> <s_pdb_PDB_ID>
1W7H

> <i_pdb_PDB_Model>
1

> <r_pdb_PDB_CRYST1_a>
45.771

> <r_pdb_PDB_CRYST1_b>
87.101

> <r_pdb_PDB_CRYST1_c>
126.337

> <r_pdb_PDB_CRYST1_alpha>
90

> <r_pdb_PDB_CRYST1_beta>
90

> <r_pdb_PDB_CRYST1_gamma>
90

> <s_pdb_PDB_CRYST1_Space_Group>
P 21 21 21

> <i_pdb_PDB_CRYST1_z>
4

> <s_pdb_PDB_CLASSIFICATION>
TRANSFERASE

> <s_pdb_PDB_DEPOSITION_DATE>
02-SEP-04

> <s_pdb_PDB_format_version>
3.0

> <r_pdb_PDB_RESOLUTION>
2.21

> <s_pdb_PDB_EXPDTA>
X-RAY DIFFRACTION

> <r_pdb_PDB_EXPDTA_TEMPERATURE>
100

> <r_pdb_PDB_EXPDTA_PH>
7

> <s_pdb_PDB_REMARK_350_Biomolecule_1_Transform_1_Chains>
A

> <s_pdb_PDB_REMARK_350_Biomolecule_1_Transform_1_Matrix_1>
1.000000 0.000000 0.000000   0.000000;0.000000 1.000000 0.000000   0.000000;0.000000 0.000000 1.000000   0.000000

> <s_m_Source_Path>
/scratch/alberto/systems/Trials

> <s_m_Source_File>
1w7h_prep.pdb

> <i_m_Source_File_Index>
1

> <s_m_source_file>
ReplaceWaterV2_9.maegz

> <i_m_source_file_index>
45

> <i_lp_mmshare_version>
49012

> <i_f3d_flags>
0

> <s_epik_input>
W2NIXTFbY0hdW2NIXW5bY0hdYzFPW0NIMl1TKD1PKSg9TylbTkgyXQ==

> <s_epik_cmdline>
J2VwaWtfcHl0aG9uJywgJy1waCcsICc3LjAnLCAnLXRuJywgJzgnLCAnLW1hJywgJzIwMCcsICctaW1hZScsICc8aW5maWxlLm1hZT4nLCAnLW9tYWUnLCAnPG91dGZpbGUubWFlPic=

> <r_epik_Ionization_Penalty>
  0.0042

> <r_epik_Ionization_Penalty_Charging>
  0.0000

> <r_epik_Ionization_Penalty_Neutral>
  0.0042

> <r_epik_State_Penalty>
  0.0000

> <r_epik_Charging_Adjusted_Penalty>
0

> <i_epik_Tot_Q>
0

> <i_epik_Tot_abs_Q>
0

> <s_lp_Force_Field>
OPLS3e

> <r_lp_Energy>
12.731537

> <b_lp_Chiralities_Consistent>
1

> <s_lp_Variant>
Core,ligand-designer_replace-H2O_44-1

> <s_m_job_name>
ReplaceWaterV2_9

> <r_lp_tautomer_probability>
1

> <i_rge_num_r_groups>
1

> <r_rge_occupation_R1>
1

> <s_rge_R1>
ligand-designer_replace-H2O_44

> <s_rge_R1_s_m_title>
ligand-designer_replace-H2O_44

> <s_rge_R1_s_m_entry_id>
25713

> <s_rge_R1_s_m_entry_name>
ligand-designer_replace-H2O.smi-ligprep.86

> <s_rge_R1_s_m_smiles>
[*]S(=O)(=O)N

> <s_rge_R1_s_m_Source_File>
ligand-designer_replace-H2O.maegz-dedup.maegz-names.maegz

> <i_rge_R1_i_m_Source_File_Index>
45

> <s_rge_R1_s_m_Source_Path>
/Users/konze/projects/pathfinder/r-groups/final-r-groups

> <s_rge_R1_s_canvas_Unique_SMILES_Stereo>
NS(=O)(=O)Cl

> <i_rge_R1_i_lp_mmshare_version>
42013

> <i_rge_R1_i_f3d_flags>
0

> <i_rge_R1_i_m_stars>
0

> <s_rge_R1_s_m_subgroup_title>
ligand-designer_replace-H2O

> <s_rge_R1_s_m_subgroupid>
ligand-designer_replace-H2O.smi-ligprep111

> <b_rge_R1_b_m_subgroup_collapsed>
1

> <s_rge_R1_s_epik_input>
W05IMl1TKD1PKSg9TylDbA==

> <s_rge_R1_s_epik_cmdline>
J2VwaWtfcHl0aG9uJywgJy1waHQnLCAnMC43JywgJy1waCcsICc3LjAnLCAnLXRuJywgJzgnLCAnLW1hJywgJzIwMCcsICctaW1hZScsICc8aW5maWxlLm1hZT4nLCAnLW9tYWUnLCAnPG91dGZpbGUubWFlPic=

> <r_rge_R1_r_epik_Ionization_Penalty>
0.0001

> <r_rge_R1_r_epik_Ionization_Penalty_Charging>
0.0001

> <r_rge_R1_r_epik_Ionization_Penalty_Neutral>
0

> <r_rge_R1_r_epik_State_Penalty>
0

> <r_rge_R1_r_epik_Charging_Adjusted_Penalty>
8.94571668376571e-05

> <i_rge_R1_i_epik_Tot_Q>
-1

> <i_rge_R1_i_epik_Tot_abs_Q>
1

> <s_rge_R1_s_lp_Force_Field>
OPLS_2005

> <r_rge_R1_r_lp_Energy>
3.67494869943168

> <b_rge_R1_b_lp_Chiralities_Consistent>
1

> <s_rge_R1_s_lp_Variant>
Untitled_Molecule_000316-1

> <r_rge_R1_r_lp_tautomer_probability>
1

> <r_rge_R1_r_m_Shape_Sim>
0

> <s_m_subgroup_title>
ReplaceWaterV2_9-out1

> <s_m_subgroupid>
ReplaceWaterV2_9-out1

> <b_m_subgroup_collapsed>
0

$$$$
Core,ligand-designer_replace-H2O_45
                    3D
 Schrodinger Suite 2020-1.
 23 23  0  0  1  0            999 V2000
   -2.3465    2.6344   -0.0678 C   0  0  0  0  0  0
   -3.6636    2.9643   -0.0758 N   0  0  0  0  0  0
   -4.5674    1.9537   -0.0260 C   0  0  0  0  0  0
   -4.1987    0.6096    0.0316 C   0  0  0  0  0  0
   -2.8393    0.2913    0.0395 C   0  0  0  0  0  0
   -1.8790    1.3180   -0.0110 C   0  0  0  0  0  0
   -0.5123    1.1247   -0.0077 O   0  0  0  0  0  0
   -0.0062   -0.2048    0.0522 C   0  0  0  0  0  0
   -5.6092    2.2386   -0.0321 H   0  0  0  0  0  0
   -4.9476   -0.1678    0.0698 H   0  0  0  0  0  0
   -2.5508   -0.7479    0.0856 H   0  0  0  0  0  0
   -0.3045   -0.7057    0.9742 H   0  0  0  0  0  0
   -0.3352   -0.7967   -0.8031 H   0  0  0  0  0  0
   -1.6511    3.4599   -0.1072 H   0  0  0  0  0  0
    2.2487    0.6507   -1.4913 N   0  0  2  0  0  0
    1.8808   -0.1766    0.0187 S   0  0  0  0  0  0
    2.3609   -1.5564   -0.1107 O   0  0  0  0  0  0
    2.3538    0.6665    1.1224 O   0  0  0  0  0  0
    2.0117    0.0762   -2.3046 H   0  0  0  0  0  0
    3.6143    1.1850   -1.6243 C   0  0  0  0  0  0
    3.7120    1.6716   -2.5948 H   0  0  0  0  0  0
    4.3400    0.3730   -1.5713 H   0  0  0  0  0  0
    3.8050    1.9258   -0.8474 H   0  0  0  0  0  0
  1  2  1  0  0  0
  1  6  2  0  0  0
  1 14  1  0  0  0
  2  3  2  0  0  0
  3  4  1  0  0  0
  3  9  1  0  0  0
  4  5  2  0  0  0
  4 10  1  0  0  0
  5  6  1  0  0  0
  5 11  1  0  0  0
  6  7  1  0  0  0
  7  8  1  0  0  0
  8 12  1  0  0  0
  8 13  1  0  0  0
  8 16  1  0  0  0
 15 16  1  0  0  0
 15 19  1  0  0  0
 15 20  1  0  0  0
 16 17  2  0  0  0
 16 18  2  0  0  0
 20 21  1  0  0  0
 20 22  1  0  0  0
 20 23  1  0  0  0
M  END
> <i_m_ct_stereo_status>
1

> <i_m_stars>
0

> <s_m_entry_id>
18558

> <s_m_entry_name>
Structure11785

> <s_pdb_PDB_TITLE>
P38 KINASE CRYSTAL STRUCTURE IN COMPLEX WITH SMALL MOLECULE INHIBITOR

> <s_pdb_PDB_ID>
1W7H

> <i_pdb_PDB_Model>
1

> <r_pdb_PDB_CRYST1_a>
45.771

> <r_pdb_PDB_CRYST1_b>
87.101

> <r_pdb_PDB_CRYST1_c>
126.337

> <r_pdb_PDB_CRYST1_alpha>
90

> <r_pdb_PDB_CRYST1_beta>
90

> <r_pdb_PDB_CRYST1_gamma>
90

> <s_pdb_PDB_CRYST1_Space_Group>
P 21 21 21

> <i_pdb_PDB_CRYST1_z>
4

> <s_pdb_PDB_CLASSIFICATION>
TRANSFERASE

> <s_pdb_PDB_DEPOSITION_DATE>
02-SEP-04

> <s_pdb_PDB_format_version>
3.0

> <r_pdb_PDB_RESOLUTION>
2.21

> <s_pdb_PDB_EXPDTA>
X-RAY DIFFRACTION

> <r_pdb_PDB_EXPDTA_TEMPERATURE>
100

> <r_pdb_PDB_EXPDTA_PH>
7

> <s_pdb_PDB_REMARK_350_Biomolecule_1_Transform_1_Chains>
A

> <s_pdb_PDB_REMARK_350_Biomolecule_1_Transform_1_Matrix_1>
1.000000 0.000000 0.000000   0.000000;0.000000 1.000000 0.000000   0.000000;0.000000 0.000000 1.000000   0.000000

> <s_m_Source_Path>
/scratch/alberto/systems/Trials

> <s_m_Source_File>
1w7h_prep.pdb

> <i_m_Source_File_Index>
1

> <s_m_source_file>
ReplaceWaterV2_9.maegz

> <i_m_source_file_index>
46

> <i_lp_mmshare_version>
49012

> <i_f3d_flags>
0

> <s_epik_input>
W2NIXTFbY0hdW2NIXW5bY0hdYzFPW0NIMl1TKD1PKSg9TylbTkhdW0NIM10=

> <s_epik_cmdline>
J2VwaWtfcHl0aG9uJywgJy1waCcsICc3LjAnLCAnLXRuJywgJzgnLCAnLW1hJywgJzIwMCcsICctaW1hZScsICc8aW5maWxlLm1hZT4nLCAnLW9tYWUnLCAnPG91dGZpbGUubWFlPic=

> <r_epik_Ionization_Penalty>
  0.0020

> <r_epik_Ionization_Penalty_Charging>
  0.0000

> <r_epik_Ionization_Penalty_Neutral>
  0.0020

> <r_epik_State_Penalty>
  0.0000

> <r_epik_Charging_Adjusted_Penalty>
0

> <i_epik_Tot_Q>
0

> <i_epik_Tot_abs_Q>
0

> <s_lp_Force_Field>
OPLS3e

> <r_lp_Energy>
20.374726

> <b_lp_Chiralities_Consistent>
1

> <s_lp_Variant>
Core,ligand-designer_replace-H2O_45-1

> <s_m_job_name>
ReplaceWaterV2_9

> <r_lp_tautomer_probability>
1

> <i_rge_num_r_groups>
1

> <r_rge_occupation_R1>
1

> <s_rge_R1>
ligand-designer_replace-H2O_45

> <s_rge_R1_s_m_title>
ligand-designer_replace-H2O_45

> <s_rge_R1_s_m_entry_id>
25714

> <s_rge_R1_s_m_entry_name>
ligand-designer_replace-H2O.smi-ligprep.87

> <s_rge_R1_s_m_smiles>
[*]S(=O)(=O)NC

> <s_rge_R1_s_m_Source_File>
ligand-designer_replace-H2O.maegz-dedup.maegz-names.maegz

> <i_rge_R1_i_m_Source_File_Index>
46

> <s_rge_R1_s_m_Source_Path>
/Users/konze/projects/pathfinder/r-groups/final-r-groups

> <s_rge_R1_s_canvas_Unique_SMILES_Stereo>
CNS(=O)(=O)Cl

> <i_rge_R1_i_lp_mmshare_version>
42013

> <i_rge_R1_i_f3d_flags>
0

> <i_rge_R1_i_m_stars>
0

> <s_rge_R1_s_m_subgroup_title>
ligand-designer_replace-H2O

> <s_rge_R1_s_m_subgroupid>
ligand-designer_replace-H2O.smi-ligprep111

> <b_rge_R1_b_m_subgroup_collapsed>
1

> <s_rge_R1_s_epik_input>
W05IMl1TKD1PKSg9TylDbA==

> <s_rge_R1_s_epik_cmdline>
J2VwaWtfcHl0aG9uJywgJy1waHQnLCAnMC43JywgJy1waCcsICc3LjAnLCAnLXRuJywgJzgnLCAnLW1hJywgJzIwMCcsICctaW1hZScsICc8aW5maWxlLm1hZT4nLCAnLW9tYWUnLCAnPG91dGZpbGUubWFlPic=

> <r_rge_R1_r_epik_Ionization_Penalty>
0.0001

> <r_rge_R1_r_epik_Ionization_Penalty_Charging>
0.0001

> <r_rge_R1_r_epik_Ionization_Penalty_Neutral>
0

> <r_rge_R1_r_epik_State_Penalty>
0

> <r_rge_R1_r_epik_Charging_Adjusted_Penalty>
8.94571668376571e-05

> <i_rge_R1_i_epik_Tot_Q>
-1

> <i_rge_R1_i_epik_Tot_abs_Q>
1

> <s_rge_R1_s_lp_Force_Field>
OPLS_2005

> <r_rge_R1_r_lp_Energy>
3.67494869943168

> <b_rge_R1_b_lp_Chiralities_Consistent>
1

> <s_rge_R1_s_lp_Variant>
Untitled_Molecule_000316-1

> <r_rge_R1_r_lp_tautomer_probability>
1

> <r_rge_R1_r_m_Shape_Sim>
0

> <s_m_subgroup_title>
ReplaceWaterV2_9-out1

> <s_m_subgroupid>
ReplaceWaterV2_9-out1

> <b_m_subgroup_collapsed>
0

$$$$
Core,ligand-designer_replace-H2O_46
                    3D
 Schrodinger Suite 2020-1.
 26 26  0  0  1  0            999 V2000
   -2.8085    0.2673   -0.0021 C   0  0  0  0  0  0
   -4.1487    0.4785   -0.0519 N   0  0  0  0  0  0
   -4.5896    1.7609   -0.0107 C   0  0  0  0  0  0
   -3.7293    2.8550    0.0824 C   0  0  0  0  0  0
   -2.3548    2.6167    0.1332 C   0  0  0  0  0  0
   -1.8660    1.3072    0.0878 C   0  0  0  0  0  0
   -0.4977    1.1330    0.1451 O   0  0  0  0  0  0
    0.0366   -0.1811    0.0175 C   0  0  0  0  0  0
   -5.6594    1.9037   -0.0529 H   0  0  0  0  0  0
   -4.1168    3.8627    0.1141 H   0  0  0  0  0  0
   -1.6693    3.4487    0.2057 H   0  0  0  0  0  0
   -0.1562   -0.7656    0.9178 H   0  0  0  0  0  0
   -0.3643   -0.7117   -0.8474 H   0  0  0  0  0  0
   -2.5105   -0.7697   -0.0311 H   0  0  0  0  0  0
    2.4429    0.7897    1.2327 N   0  0  0  0  0  0
    1.9086   -0.0941   -0.2100 S   0  0  0  0  0  0
    2.1809    0.7346   -1.3901 O   0  0  0  0  0  0
    2.4379   -1.4608   -0.1350 O   0  0  0  0  0  0
    2.9141    0.0169    2.3993 C   0  0  0  0  0  0
    2.9410    2.1714    1.0789 C   0  0  0  0  0  0
    2.8135    2.7240    2.0100 H   0  0  0  0  0  0
    2.3919    2.6795    0.2861 H   0  0  0  0  0  0
    3.9947    2.1504    0.7994 H   0  0  0  0  0  0
    2.7570    0.5855    3.3163 H   0  0  0  0  0  0
    3.9722   -0.2182    2.2798 H   0  0  0  0  0  0
    2.3665   -0.9235    2.4664 H   0  0  0  0  0  0
  1  2  1  0  0  0
  1  6  2  0  0  0
  1 14  1  0  0  0
  2  3  2  0  0  0
  3  4  1  0  0  0
  3  9  1  0  0  0
  4  5  2  0  0  0
  4 10  1  0  0  0
  5  6  1  0  0  0
  5 11  1  0  0  0
  6  7  1  0  0  0
  7  8  1  0  0  0
  8 12  1  0  0  0
  8 13  1  0  0  0
  8 16  1  0  0  0
 15 16  1  0  0  0
 15 19  1  0  0  0
 15 20  1  0  0  0
 16 17  2  0  0  0
 16 18  2  0  0  0
 19 24  1  0  0  0
 19 25  1  0  0  0
 19 26  1  0  0  0
 20 21  1  0  0  0
 20 22  1  0  0  0
 20 23  1  0  0  0
M  END
> <i_m_ct_stereo_status>
1

> <i_m_stars>
0

> <s_m_entry_id>
18559

> <s_m_entry_name>
Structure11785

> <s_pdb_PDB_TITLE>
P38 KINASE CRYSTAL STRUCTURE IN COMPLEX WITH SMALL MOLECULE INHIBITOR

> <s_pdb_PDB_ID>
1W7H

> <i_pdb_PDB_Model>
1

> <r_pdb_PDB_CRYST1_a>
45.771

> <r_pdb_PDB_CRYST1_b>
87.101

> <r_pdb_PDB_CRYST1_c>
126.337

> <r_pdb_PDB_CRYST1_alpha>
90

> <r_pdb_PDB_CRYST1_beta>
90

> <r_pdb_PDB_CRYST1_gamma>
90

> <s_pdb_PDB_CRYST1_Space_Group>
P 21 21 21

> <i_pdb_PDB_CRYST1_z>
4

> <s_pdb_PDB_CLASSIFICATION>
TRANSFERASE

> <s_pdb_PDB_DEPOSITION_DATE>
02-SEP-04

> <s_pdb_PDB_format_version>
3.0

> <r_pdb_PDB_RESOLUTION>
2.21

> <s_pdb_PDB_EXPDTA>
X-RAY DIFFRACTION

> <r_pdb_PDB_EXPDTA_TEMPERATURE>
100

> <r_pdb_PDB_EXPDTA_PH>
7

> <s_pdb_PDB_REMARK_350_Biomolecule_1_Transform_1_Chains>
A

> <s_pdb_PDB_REMARK_350_Biomolecule_1_Transform_1_Matrix_1>
1.000000 0.000000 0.000000   0.000000;0.000000 1.000000 0.000000   0.000000;0.000000 0.000000 1.000000   0.000000

> <s_m_Source_Path>
/scratch/alberto/systems/Trials

> <s_m_Source_File>
1w7h_prep.pdb

> <i_m_Source_File_Index>
1

> <s_m_source_file>
ReplaceWaterV2_9.maegz

> <i_m_source_file_index>
47

> <i_lp_mmshare_version>
49012

> <i_f3d_flags>
0

> <s_epik_input>
W2NIXTFbY0hdW2NIXW5bY0hdYzFPW0NIMl1TKD1PKSg9TylOKFtDSDNdKVtDSDNd

> <s_epik_cmdline>
J2VwaWtfcHl0aG9uJywgJy1waCcsICc3LjAnLCAnLXRuJywgJzgnLCAnLW1hJywgJzIwMCcsICctaW1hZScsICc8aW5maWxlLm1hZT4nLCAnLW9tYWUnLCAnPG91dGZpbGUubWFlPic=

> <r_epik_Ionization_Penalty>
  0.0016

> <r_epik_Ionization_Penalty_Charging>
  0.0000

> <r_epik_Ionization_Penalty_Neutral>
  0.0016

> <r_epik_State_Penalty>
  0.0011

> <r_epik_Charging_Adjusted_Penalty>
0.00109929792809085

> <i_epik_Tot_Q>
0

> <i_epik_Tot_abs_Q>
0

> <s_lp_Force_Field>
OPLS3e

> <r_lp_Energy>
24.805089

> <b_lp_Chiralities_Consistent>
1

> <s_lp_Variant>
Core,ligand-designer_replace-H2O_46-1

> <s_m_job_name>
ReplaceWaterV2_9

> <r_lp_tautomer_probability>
1

> <i_rge_num_r_groups>
1

> <r_rge_occupation_R1>
1

> <s_rge_R1>
ligand-designer_replace-H2O_46

> <s_rge_R1_s_m_title>
ligand-designer_replace-H2O_46

> <s_rge_R1_s_m_entry_id>
25715

> <s_rge_R1_s_m_entry_name>
ligand-designer_replace-H2O.smi-ligprep.88

> <s_rge_R1_s_m_smiles>
[*]S(=O)(=O)N(C)C

> <s_rge_R1_s_m_Source_File>
ligand-designer_replace-H2O.maegz-dedup.maegz-names.maegz

> <i_rge_R1_i_m_Source_File_Index>
47

> <s_rge_R1_s_m_Source_Path>
/Users/konze/projects/pathfinder/r-groups/final-r-groups

> <s_rge_R1_s_canvas_Unique_SMILES_Stereo>
CN(C)S(=O)(=O)Cl

> <i_rge_R1_i_lp_mmshare_version>
42013

> <i_rge_R1_i_f3d_flags>
0

> <i_rge_R1_i_m_stars>
0

> <s_rge_R1_s_m_subgroup_title>
ligand-designer_replace-H2O

> <s_rge_R1_s_m_subgroupid>
ligand-designer_replace-H2O.smi-ligprep111

> <b_rge_R1_b_m_subgroup_collapsed>
1

> <s_rge_R1_s_epik_input>
W05IMl1TKD1PKSg9TylDbA==

> <s_rge_R1_s_epik_cmdline>
J2VwaWtfcHl0aG9uJywgJy1waHQnLCAnMC43JywgJy1waCcsICc3LjAnLCAnLXRuJywgJzgnLCAnLW1hJywgJzIwMCcsICctaW1hZScsICc8aW5maWxlLm1hZT4nLCAnLW9tYWUnLCAnPG91dGZpbGUubWFlPic=

> <r_rge_R1_r_epik_Ionization_Penalty>
0.0001

> <r_rge_R1_r_epik_Ionization_Penalty_Charging>
0.0001

> <r_rge_R1_r_epik_Ionization_Penalty_Neutral>
0

> <r_rge_R1_r_epik_State_Penalty>
0

> <r_rge_R1_r_epik_Charging_Adjusted_Penalty>
8.94571668376571e-05

> <i_rge_R1_i_epik_Tot_Q>
-1

> <i_rge_R1_i_epik_Tot_abs_Q>
1

> <s_rge_R1_s_lp_Force_Field>
OPLS_2005

> <r_rge_R1_r_lp_Energy>
3.67494869943168

> <b_rge_R1_b_lp_Chiralities_Consistent>
1

> <s_rge_R1_s_lp_Variant>
Untitled_Molecule_000316-1

> <r_rge_R1_r_lp_tautomer_probability>
1

> <r_rge_R1_r_m_Shape_Sim>
0

> <s_m_subgroup_title>
ReplaceWaterV2_9-out1

> <s_m_subgroupid>
ReplaceWaterV2_9-out1

> <b_m_subgroup_collapsed>
0

$$$$
Core,ligand-designer_replace-H2O_47
                    3D
 Schrodinger Suite 2020-1.
 23 23  0  0  1  0            999 V2000
   -2.4006    2.6604   -0.0912 C   0  0  0  0  0  0
   -3.7225    2.9662   -0.1440 N   0  0  0  0  0  0
   -4.6086    1.9390   -0.1353 C   0  0  0  0  0  0
   -4.2174    0.6013   -0.0754 C   0  0  0  0  0  0
   -2.8534    0.3077   -0.0215 C   0  0  0  0  0  0
   -1.9114    1.3523   -0.0283 C   0  0  0  0  0  0
   -0.5428    1.1845    0.0218 O   0  0  0  0  0  0
   -0.0188   -0.1336    0.1285 C   0  0  0  0  0  0
   -5.6545    2.2050   -0.1782 H   0  0  0  0  0  0
   -4.9527   -0.1898   -0.0712 H   0  0  0  0  0  0
   -2.5470   -0.7264    0.0238 H   0  0  0  0  0  0
   -0.4010   -0.6542    1.0082 H   0  0  0  0  0  0
   -0.2938   -0.7093   -0.7562 H   0  0  0  0  0  0
   -1.7189    3.4983   -0.0977 H   0  0  0  0  0  0
    3.9428    0.9573    1.1223 C   0  0  0  0  0  0
    2.1636    0.6224    1.6455 S   0  0  0  0  0  0
    2.1749   -0.4128    2.6841 O   0  0  0  0  0  0
    1.5055    1.9098    1.8930 O   0  0  0  0  0  0
    1.4522   -0.0954    0.2022 N   0  0  1  0  0  0
    4.4741    1.4165    1.9554 H   0  0  0  0  0  0
    3.9386    1.6324    0.2670 H   0  0  0  0  0  0
    4.4172    0.0141    0.8529 H   0  0  0  0  0  0
    1.8410   -1.0214    0.0052 H   0  0  0  0  0  0
  1  2  1  0  0  0
  1  6  2  0  0  0
  1 14  1  0  0  0
  2  3  2  0  0  0
  3  4  1  0  0  0
  3  9  1  0  0  0
  4  5  2  0  0  0
  4 10  1  0  0  0
  5  6  1  0  0  0
  5 11  1  0  0  0
  6  7  1  0  0  0
  7  8  1  0  0  0
  8 12  1  0  0  0
  8 13  1  0  0  0
  8 19  1  0  0  0
 15 16  1  0  0  0
 15 20  1  0  0  0
 15 21  1  0  0  0
 15 22  1  0  0  0
 16 17  2  0  0  0
 16 18  2  0  0  0
 16 19  1  0  0  0
 19 23  1  0  0  0
M  END
> <i_m_ct_stereo_status>
1

> <i_m_stars>
0

> <s_m_entry_id>
18560

> <s_m_entry_name>
Structure11785

> <s_pdb_PDB_TITLE>
P38 KINASE CRYSTAL STRUCTURE IN COMPLEX WITH SMALL MOLECULE INHIBITOR

> <s_pdb_PDB_ID>
1W7H

> <i_pdb_PDB_Model>
1

> <r_pdb_PDB_CRYST1_a>
45.771

> <r_pdb_PDB_CRYST1_b>
87.101

> <r_pdb_PDB_CRYST1_c>
126.337

> <r_pdb_PDB_CRYST1_alpha>
90

> <r_pdb_PDB_CRYST1_beta>
90

> <r_pdb_PDB_CRYST1_gamma>
90

> <s_pdb_PDB_CRYST1_Space_Group>
P 21 21 21

> <i_pdb_PDB_CRYST1_z>
4

> <s_pdb_PDB_CLASSIFICATION>
TRANSFERASE

> <s_pdb_PDB_DEPOSITION_DATE>
02-SEP-04

> <s_pdb_PDB_format_version>
3.0

> <r_pdb_PDB_RESOLUTION>
2.21

> <s_pdb_PDB_EXPDTA>
X-RAY DIFFRACTION

> <r_pdb_PDB_EXPDTA_TEMPERATURE>
100

> <r_pdb_PDB_EXPDTA_PH>
7

> <s_pdb_PDB_REMARK_350_Biomolecule_1_Transform_1_Chains>
A

> <s_pdb_PDB_REMARK_350_Biomolecule_1_Transform_1_Matrix_1>
1.000000 0.000000 0.000000   0.000000;0.000000 1.000000 0.000000   0.000000;0.000000 0.000000 1.000000   0.000000

> <s_m_Source_Path>
/scratch/alberto/systems/Trials

> <s_m_Source_File>
1w7h_prep.pdb

> <i_m_Source_File_Index>
1

> <s_m_source_file>
ReplaceWaterV2_9.maegz

> <i_m_source_file_index>
48

> <i_lp_mmshare_version>
49012

> <i_f3d_flags>
0

> <s_epik_input>
W2NIXTFbY0hdW2NIXW5bY0hdYzFPW0NIMl1bTkhdUyg9TykoPU8pW0NIM10=

> <s_epik_cmdline>
J2VwaWtfcHl0aG9uJywgJy1waCcsICc3LjAnLCAnLXRuJywgJzgnLCAnLW1hJywgJzIwMCcsICctaW1hZScsICc8aW5maWxlLm1hZT4nLCAnLW9tYWUnLCAnPG91dGZpbGUubWFlPic=

> <r_epik_Ionization_Penalty>
  0.0029

> <r_epik_Ionization_Penalty_Charging>
  0.0000

> <r_epik_Ionization_Penalty_Neutral>
  0.0029

> <r_epik_State_Penalty>
  0.0000

> <r_epik_Charging_Adjusted_Penalty>
0

> <i_epik_Tot_Q>
0

> <i_epik_Tot_abs_Q>
0

> <s_lp_Force_Field>
OPLS3e

> <r_lp_Energy>
9.47894

> <b_lp_Chiralities_Consistent>
1

> <s_lp_Variant>
Core,ligand-designer_replace-H2O_47-1

> <s_m_job_name>
ReplaceWaterV2_9

> <r_lp_tautomer_probability>
1

> <s_epik_Chemistry_Notes>
This compound contains an acetal/aminal-like group ( X-CH(R)-Y where X, Y are N, S, or O) that may be acid/base labile, releasing an aldehyde.

> <i_rge_num_r_groups>
1

> <r_rge_occupation_R1>
1

> <s_rge_R1>
ligand-designer_replace-H2O_47

> <s_rge_R1_s_m_title>
ligand-designer_replace-H2O_47

> <s_rge_R1_s_m_entry_id>
25716

> <s_rge_R1_s_m_entry_name>
ligand-designer_replace-H2O.smi-ligprep.89

> <s_rge_R1_s_m_smiles>
[*]NS(=O)(=O)C

> <s_rge_R1_s_m_Source_File>
ligand-designer_replace-H2O.maegz-dedup.maegz-names.maegz

> <i_rge_R1_i_m_Source_File_Index>
48

> <s_rge_R1_s_m_Source_Path>
/Users/konze/projects/pathfinder/r-groups/final-r-groups

> <s_rge_R1_s_canvas_Unique_SMILES_Stereo>
CS(=O)(=O)NCl

> <i_rge_R1_i_lp_mmshare_version>
42013

> <i_rge_R1_i_f3d_flags>
0

> <i_rge_R1_i_m_stars>
0

> <s_rge_R1_s_m_subgroup_title>
ligand-designer_replace-H2O

> <s_rge_R1_s_m_subgroupid>
ligand-designer_replace-H2O.smi-ligprep111

> <b_rge_R1_b_m_subgroup_collapsed>
1

> <s_rge_R1_s_epik_input>
W0NIM11TKD1PKSg9TylbTkhdQ2w=

> <s_rge_R1_s_epik_cmdline>
J2VwaWtfcHl0aG9uJywgJy1waHQnLCAnMC43JywgJy1waCcsICc3LjAnLCAnLXRuJywgJzgnLCAnLW1hJywgJzIwMCcsICctaW1hZScsICc8aW5maWxlLm1hZT4nLCAnLW9tYWUnLCAnPG91dGZpbGUubWFlPic=

> <r_rge_R1_r_epik_Ionization_Penalty>
0.0042

> <r_rge_R1_r_epik_Ionization_Penalty_Charging>
0.0042

> <r_rge_R1_r_epik_Ionization_Penalty_Neutral>
0

> <r_rge_R1_r_epik_State_Penalty>
0

> <r_rge_R1_r_epik_Charging_Adjusted_Penalty>
0.00417970039977055

> <i_rge_R1_i_epik_Tot_Q>
-1

> <i_rge_R1_i_epik_Tot_abs_Q>
1

> <s_rge_R1_s_lp_Force_Field>
OPLS_2005

> <r_rge_R1_r_lp_Energy>
-6.17985441536786

> <b_rge_R1_b_lp_Chiralities_Consistent>
1

> <s_rge_R1_s_lp_Variant>
Untitled_Molecule_000341-1

> <r_rge_R1_r_lp_tautomer_probability>
1

> <r_rge_R1_r_m_Shape_Sim>
0.335624154123538

> <s_m_subgroup_title>
ReplaceWaterV2_9-out1

> <s_m_subgroupid>
ReplaceWaterV2_9-out1

> <b_m_subgroup_collapsed>
0

$$$$
Core,ligand-designer_replace-H2O_48
                    3D
 Schrodinger Suite 2020-1.
 26 26  0  0  1  0            999 V2000
   -2.1646    2.6764    0.2704 C   0  0  0  0  0  0
   -3.4664    3.0572    0.3311 N   0  0  0  0  0  0
   -4.4126    2.0951    0.1913 C   0  0  0  0  0  0
   -4.1016    0.7502   -0.0099 C   0  0  0  0  0  0
   -2.7570    0.3788   -0.0692 C   0  0  0  0  0  0
   -1.7540    1.3547    0.0730 C   0  0  0  0  0  0
   -0.3971    1.1076    0.0328 O   0  0  0  0  0  0
    0.0499   -0.2260   -0.1744 C   0  0  0  0  0  0
   -5.4412    2.4203    0.2432 H   0  0  0  0  0  0
   -4.8832    0.0126   -0.1169 H   0  0  0  0  0  0
   -2.5128   -0.6612   -0.2243 H   0  0  0  0  0  0
   -0.2976   -0.8523    0.6491 H   0  0  0  0  0  0
   -0.3434   -0.6410   -1.1038 H   0  0  0  0  0  0
   -1.4344    3.4641    0.3849 H   0  0  0  0  0  0
    2.2852    2.4364   -0.8745 C   0  0  0  0  0  0
    2.3179    0.6583   -1.5092 S   0  0  0  0  0  0
    1.4746    0.5774   -2.7071 O   0  0  0  0  0  0
    3.7258    0.2502   -1.5756 O   0  0  0  0  0  0
    1.5294   -0.2788   -0.2202 N   0  0  2  0  0  0
    2.8389    3.0653   -1.5710 H   0  0  0  0  0  0
    2.7543    2.4700    0.1080 H   0  0  0  0  0  0
    1.2560    2.7851   -0.8127 H   0  0  0  0  0  0
    2.1141   -1.6074    0.0637 C   0  0  0  0  0  0
    1.7170   -2.0024    0.9991 H   0  0  0  0  0  0
    3.1973   -1.5271    0.1553 H   0  0  0  0  0  0
    1.8890   -2.2920   -0.7548 H   0  0  0  0  0  0
  1  2  1  0  0  0
  1  6  2  0  0  0
  1 14  1  0  0  0
  2  3  2  0  0  0
  3  4  1  0  0  0
  3  9  1  0  0  0
  4  5  2  0  0  0
  4 10  1  0  0  0
  5  6  1  0  0  0
  5 11  1  0  0  0
  6  7  1  0  0  0
  7  8  1  0  0  0
  8 12  1  0  0  0
  8 13  1  0  0  0
  8 19  1  0  0  0
 15 16  1  0  0  0
 15 20  1  0  0  0
 15 21  1  0  0  0
 15 22  1  0  0  0
 16 17  2  0  0  0
 16 18  2  0  0  0
 16 19  1  0  0  0
 19 23  1  0  0  0
 23 24  1  0  0  0
 23 25  1  0  0  0
 23 26  1  0  0  0
M  END
> <i_m_ct_stereo_status>
1

> <i_m_stars>
0

> <s_m_entry_id>
18561

> <s_m_entry_name>
Structure11785

> <s_pdb_PDB_TITLE>
P38 KINASE CRYSTAL STRUCTURE IN COMPLEX WITH SMALL MOLECULE INHIBITOR

> <s_pdb_PDB_ID>
1W7H

> <i_pdb_PDB_Model>
1

> <r_pdb_PDB_CRYST1_a>
45.771

> <r_pdb_PDB_CRYST1_b>
87.101

> <r_pdb_PDB_CRYST1_c>
126.337

> <r_pdb_PDB_CRYST1_alpha>
90

> <r_pdb_PDB_CRYST1_beta>
90

> <r_pdb_PDB_CRYST1_gamma>
90

> <s_pdb_PDB_CRYST1_Space_Group>
P 21 21 21

> <i_pdb_PDB_CRYST1_z>
4

> <s_pdb_PDB_CLASSIFICATION>
TRANSFERASE

> <s_pdb_PDB_DEPOSITION_DATE>
02-SEP-04

> <s_pdb_PDB_format_version>
3.0

> <r_pdb_PDB_RESOLUTION>
2.21

> <s_pdb_PDB_EXPDTA>
X-RAY DIFFRACTION

> <r_pdb_PDB_EXPDTA_TEMPERATURE>
100

> <r_pdb_PDB_EXPDTA_PH>
7

> <s_pdb_PDB_REMARK_350_Biomolecule_1_Transform_1_Chains>
A

> <s_pdb_PDB_REMARK_350_Biomolecule_1_Transform_1_Matrix_1>
1.000000 0.000000 0.000000   0.000000;0.000000 1.000000 0.000000   0.000000;0.000000 0.000000 1.000000   0.000000

> <s_m_Source_Path>
/scratch/alberto/systems/Trials

> <s_m_Source_File>
1w7h_prep.pdb

> <i_m_Source_File_Index>
1

> <s_m_source_file>
ReplaceWaterV2_9.maegz

> <i_m_source_file_index>
49

> <i_lp_mmshare_version>
49012

> <i_f3d_flags>
0

> <s_epik_input>
W2NIXTFbY0hdW2NIXW5bY0hdYzFPW0NIMl1OKFtDSDNdKVMoPU8pKD1PKVtDSDNd

> <s_epik_cmdline>
J2VwaWtfcHl0aG9uJywgJy1waCcsICc3LjAnLCAnLXRuJywgJzgnLCAnLW1hJywgJzIwMCcsICctaW1hZScsICc8aW5maWxlLm1hZT4nLCAnLW9tYWUnLCAnPG91dGZpbGUubWFlPic=

> <r_epik_Ionization_Penalty>
  0.0023

> <r_epik_Ionization_Penalty_Charging>
  0.0000

> <r_epik_Ionization_Penalty_Neutral>
  0.0023

> <r_epik_State_Penalty>
  0.0016

> <r_epik_Charging_Adjusted_Penalty>
0.00158223380007959

> <i_epik_Tot_Q>
0

> <i_epik_Tot_abs_Q>
0

> <s_lp_Force_Field>
OPLS3e

> <r_lp_Energy>
17.196447

> <b_lp_Chiralities_Consistent>
1

> <s_lp_Variant>
Core,ligand-designer_replace-H2O_48-1

> <s_m_job_name>
ReplaceWaterV2_9

> <r_lp_tautomer_probability>
1

> <s_epik_Chemistry_Notes>
This compound contains an acetal/aminal-like group ( X-CH(R)-Y where X, Y are N, S, or O) that may be acid/base labile, releasing an aldehyde.

> <i_rge_num_r_groups>
1

> <r_rge_occupation_R1>
1

> <s_rge_R1>
ligand-designer_replace-H2O_48

> <s_rge_R1_s_m_title>
ligand-designer_replace-H2O_48

> <s_rge_R1_s_m_entry_id>
25717

> <s_rge_R1_s_m_entry_name>
ligand-designer_replace-H2O.smi-ligprep.90

> <s_rge_R1_s_m_smiles>
[*]N(C)S(=O)(=O)C

> <s_rge_R1_s_m_Source_File>
ligand-designer_replace-H2O.maegz-dedup.maegz-names.maegz

> <i_rge_R1_i_m_Source_File_Index>
49

> <s_rge_R1_s_m_Source_Path>
/Users/konze/projects/pathfinder/r-groups/final-r-groups

> <s_rge_R1_s_canvas_Unique_SMILES_Stereo>
CN(Cl)S(=O)(=O)C

> <i_rge_R1_i_lp_mmshare_version>
42013

> <i_rge_R1_i_f3d_flags>
0

> <i_rge_R1_i_m_stars>
0

> <s_rge_R1_s_m_subgroup_title>
ligand-designer_replace-H2O

> <s_rge_R1_s_m_subgroupid>
ligand-designer_replace-H2O.smi-ligprep111

> <b_rge_R1_b_m_subgroup_collapsed>
1

> <s_rge_R1_s_epik_input>
W0NIM11TKD1PKSg9TylbTkhdQ2w=

> <s_rge_R1_s_epik_cmdline>
J2VwaWtfcHl0aG9uJywgJy1waHQnLCAnMC43JywgJy1waCcsICc3LjAnLCAnLXRuJywgJzgnLCAnLW1hJywgJzIwMCcsICctaW1hZScsICc8aW5maWxlLm1hZT4nLCAnLW9tYWUnLCAnPG91dGZpbGUubWFlPic=

> <r_rge_R1_r_epik_Ionization_Penalty>
0.0042

> <r_rge_R1_r_epik_Ionization_Penalty_Charging>
0.0042

> <r_rge_R1_r_epik_Ionization_Penalty_Neutral>
0

> <r_rge_R1_r_epik_State_Penalty>
0

> <r_rge_R1_r_epik_Charging_Adjusted_Penalty>
0.00417970039977055

> <i_rge_R1_i_epik_Tot_Q>
-1

> <i_rge_R1_i_epik_Tot_abs_Q>
1

> <s_rge_R1_s_lp_Force_Field>
OPLS_2005

> <r_rge_R1_r_lp_Energy>
-6.17985441536786

> <b_rge_R1_b_lp_Chiralities_Consistent>
1

> <s_rge_R1_s_lp_Variant>
Untitled_Molecule_000341-1

> <r_rge_R1_r_lp_tautomer_probability>
1

> <r_rge_R1_r_m_Shape_Sim>
0.335624154123538

> <s_m_subgroup_title>
ReplaceWaterV2_9-out1

> <s_m_subgroupid>
ReplaceWaterV2_9-out1

> <b_m_subgroup_collapsed>
0

$$$$
Core,ligand-designer_replace-H2O_49
                    3D
 Schrodinger Suite 2020-1.
 23 23  0  0  1  0            999 V2000
   -2.3638    2.6571   -0.0323 C   0  0  0  0  0  0
   -3.6795    2.9919   -0.0149 N   0  0  0  0  0  0
   -4.5871    1.9836   -0.0029 C   0  0  0  0  0  0
   -4.2236    0.6369   -0.0090 C   0  0  0  0  0  0
   -2.8655    0.3135   -0.0276 C   0  0  0  0  0  0
   -1.9012    1.3378   -0.0380 C   0  0  0  0  0  0
   -0.5345    1.1398   -0.0529 O   0  0  0  0  0  0
   -0.0285   -0.1912   -0.0248 C   0  0  0  0  0  0
   -5.6277    2.2725    0.0121 H   0  0  0  0  0  0
   -4.9757   -0.1384    0.0007 H   0  0  0  0  0  0
   -2.5816   -0.7280   -0.0336 H   0  0  0  0  0  0
   -0.3957   -0.7133    0.8610 H   0  0  0  0  0  0
   -0.3569   -0.7388   -0.9101 H   0  0  0  0  0  0
   -1.6654    3.4811   -0.0396 H   0  0  0  0  0  0
    1.5021   -0.1258    0.0121 C   0  0  0  0  0  0
    2.2292   -1.8610    0.1687 S   0  0  0  0  0  0
    1.8489   -2.4040    1.4768 O   0  0  0  0  0  0
    1.9324   -2.5982   -1.0638 O   0  0  0  0  0  0
    3.9558   -1.5643    0.2033 N   0  0  0  0  0  0
    1.9038    0.3458   -0.8846 H   0  0  0  0  0  0
    1.8483    0.4631    0.8615 H   0  0  0  0  0  0
    4.3421   -1.1984   -0.6708 H   0  0  0  0  0  0
    4.2840   -1.0624    1.0326 H   0  0  0  0  0  0
  1  2  1  0  0  0
  1  6  2  0  0  0
  1 14  1  0  0  0
  2  3  2  0  0  0
  3  4  1  0  0  0
  3  9  1  0  0  0
  4  5  2  0  0  0
  4 10  1  0  0  0
  5  6  1  0  0  0
  5 11  1  0  0  0
  6  7  1  0  0  0
  7  8  1  0  0  0
  8 12  1  0  0  0
  8 13  1  0  0  0
  8 15  1  0  0  0
 15 16  1  0  0  0
 15 20  1  0  0  0
 15 21  1  0  0  0
 16 17  2  0  0  0
 16 18  2  0  0  0
 16 19  1  0  0  0
 19 22  1  0  0  0
 19 23  1  0  0  0
M  END
> <i_m_ct_stereo_status>
1

> <i_m_stars>
0

> <s_m_entry_id>
18562

> <s_m_entry_name>
Structure11785

> <s_pdb_PDB_TITLE>
P38 KINASE CRYSTAL STRUCTURE IN COMPLEX WITH SMALL MOLECULE INHIBITOR

> <s_pdb_PDB_ID>
1W7H

> <i_pdb_PDB_Model>
1

> <r_pdb_PDB_CRYST1_a>
45.771

> <r_pdb_PDB_CRYST1_b>
87.101

> <r_pdb_PDB_CRYST1_c>
126.337

> <r_pdb_PDB_CRYST1_alpha>
90

> <r_pdb_PDB_CRYST1_beta>
90

> <r_pdb_PDB_CRYST1_gamma>
90

> <s_pdb_PDB_CRYST1_Space_Group>
P 21 21 21

> <i_pdb_PDB_CRYST1_z>
4

> <s_pdb_PDB_CLASSIFICATION>
TRANSFERASE

> <s_pdb_PDB_DEPOSITION_DATE>
02-SEP-04

> <s_pdb_PDB_format_version>
3.0

> <r_pdb_PDB_RESOLUTION>
2.21

> <s_pdb_PDB_EXPDTA>
X-RAY DIFFRACTION

> <r_pdb_PDB_EXPDTA_TEMPERATURE>
100

> <r_pdb_PDB_EXPDTA_PH>
7

> <s_pdb_PDB_REMARK_350_Biomolecule_1_Transform_1_Chains>
A

> <s_pdb_PDB_REMARK_350_Biomolecule_1_Transform_1_Matrix_1>
1.000000 0.000000 0.000000   0.000000;0.000000 1.000000 0.000000   0.000000;0.000000 0.000000 1.000000   0.000000

> <s_m_Source_Path>
/scratch/alberto/systems/Trials

> <s_m_Source_File>
1w7h_prep.pdb

> <i_m_Source_File_Index>
1

> <s_m_source_file>
ReplaceWaterV2_9.maegz

> <i_m_source_file_index>
50

> <i_lp_mmshare_version>
49012

> <i_f3d_flags>
0

> <s_epik_input>
W2NIXTFbY0hdW2NIXW5bY0hdYzFPW0NIMl1bQ0gyXVMoPU8pKD1PKVtOSDJd

> <s_epik_cmdline>
J2VwaWtfcHl0aG9uJywgJy1waCcsICc3LjAnLCAnLXRuJywgJzgnLCAnLW1hJywgJzIwMCcsICctaW1hZScsICc8aW5maWxlLm1hZT4nLCAnLW9tYWUnLCAnPG91dGZpbGUubWFlPic=

> <r_epik_Ionization_Penalty>
  0.0015

> <r_epik_Ionization_Penalty_Charging>
  0.0000

> <r_epik_Ionization_Penalty_Neutral>
  0.0015

> <r_epik_State_Penalty>
  0.0000

> <r_epik_Charging_Adjusted_Penalty>
0

> <i_epik_Tot_Q>
0

> <i_epik_Tot_abs_Q>
0

> <s_lp_Force_Field>
OPLS3e

> <r_lp_Energy>
5.888705

> <b_lp_Chiralities_Consistent>
1

> <s_lp_Variant>
Core,ligand-designer_replace-H2O_49-1

> <s_m_job_name>
ReplaceWaterV2_9

> <r_lp_tautomer_probability>
1

> <i_rge_num_r_groups>
1

> <r_rge_occupation_R1>
1

> <s_rge_R1>
ligand-designer_replace-H2O_49

> <s_rge_R1_s_m_title>
ligand-designer_replace-H2O_49

> <s_rge_R1_s_m_entry_id>
25718

> <s_rge_R1_s_m_entry_name>
ligand-designer_replace-H2O.smi-ligprep.93

> <s_rge_R1_s_m_smiles>
[*]CS(=O)(=O)N

> <s_rge_R1_s_m_Source_File>
ligand-designer_replace-H2O.maegz-dedup.maegz-names.maegz

> <i_rge_R1_i_m_Source_File_Index>
50

> <s_rge_R1_s_m_Source_Path>
/Users/konze/projects/pathfinder/r-groups/final-r-groups

> <s_rge_R1_s_canvas_Unique_SMILES_Stereo>
ClCS(=O)(=O)N

> <i_rge_R1_i_lp_mmshare_version>
42013

> <i_rge_R1_i_f3d_flags>
0

> <i_rge_R1_i_m_stars>
0

> <s_rge_R1_s_m_subgroup_title>
ligand-designer_replace-H2O

> <s_rge_R1_s_m_subgroupid>
ligand-designer_replace-H2O.smi-ligprep111

> <b_rge_R1_b_m_subgroup_collapsed>
1

> <s_rge_R1_s_epik_input>
Q2xbQ0gyXVMoPU8pKD1PKVtOSDJd

> <s_rge_R1_s_epik_cmdline>
J2VwaWtfcHl0aG9uJywgJy1waHQnLCAnMC43JywgJy1waCcsICc3LjAnLCAnLXRuJywgJzgnLCAnLW1hJywgJzIwMCcsICctaW1hZScsICc8aW5maWxlLm1hZT4nLCAnLW9tYWUnLCAnPG91dGZpbGUubWFlPic=

> <r_rge_R1_r_epik_Ionization_Penalty>
0.0089

> <r_rge_R1_r_epik_Ionization_Penalty_Charging>
0

> <r_rge_R1_r_epik_Ionization_Penalty_Neutral>
0.0089

> <r_rge_R1_r_epik_State_Penalty>
0.0067

> <r_rge_R1_r_epik_Charging_Adjusted_Penalty>
0.00670261308122557

> <i_rge_R1_i_epik_Tot_Q>
0

> <i_rge_R1_i_epik_Tot_abs_Q>
0

> <s_rge_R1_s_lp_Force_Field>
OPLS_2005

> <r_rge_R1_r_lp_Energy>
-4.12107655397258

> <b_rge_R1_b_lp_Chiralities_Consistent>
1

> <s_rge_R1_s_lp_Variant>
Untitled_Molecule_000340-1

> <r_rge_R1_r_m_Shape_Sim>
0.316935062709055

> <s_m_subgroup_title>
ReplaceWaterV2_9-out1

> <s_m_subgroupid>
ReplaceWaterV2_9-out1

> <b_m_subgroup_collapsed>
0

$$$$
Core,ligand-designer_replace-H2O_50
                    3D
 Schrodinger Suite 2020-1.
 26 26  0  0  1  0            999 V2000
   -2.4041    2.6253   -0.0106 C   0  0  0  0  0  0
   -3.7299    2.9068   -0.0905 N   0  0  0  0  0  0
   -4.5956    1.8628   -0.1251 C   0  0  0  0  0  0
   -4.1798    0.5319   -0.0819 C   0  0  0  0  0  0
   -2.8120    0.2635    0.0002 C   0  0  0  0  0  0
   -1.8909    1.3259    0.0364 C   0  0  0  0  0  0
   -0.5201    1.1849    0.1165 O   0  0  0  0  0  0
    0.0455   -0.1220    0.1105 C   0  0  0  0  0  0
   -5.6452    2.1095   -0.1890 H   0  0  0  0  0  0
   -4.8994   -0.2730   -0.1110 H   0  0  0  0  0  0
   -2.4876   -0.7654    0.0359 H   0  0  0  0  0  0
   -0.2757   -0.6623    1.0025 H   0  0  0  0  0  0
   -0.2917   -0.6927   -0.7567 H   0  0  0  0  0  0
   -1.7390    3.4761    0.0137 H   0  0  0  0  0  0
    1.5791   -0.0295    0.1003 C   0  0  0  0  0  0
    2.2053    0.8348   -1.4662 S   0  0  0  0  0  0
    3.6708    0.7794   -1.4614 O   0  0  0  0  0  0
    1.4544    0.3226   -2.6181 O   0  0  0  0  0  0
    1.7525    2.5210   -1.2316 N   0  0  1  0  0  0
    1.9430    0.5528    0.9468 H   0  0  0  0  0  0
    2.0323   -1.0199    0.1371 H   0  0  0  0  0  0
    2.3227    2.9706   -0.5101 H   0  0  0  0  0  0
    1.7019    3.3581   -2.4416 C   0  0  0  0  0  0
    1.4061    4.3691   -2.1615 H   0  0  0  0  0  0
    0.9624    2.9645   -3.1396 H   0  0  0  0  0  0
    2.6873    3.4028   -2.9063 H   0  0  0  0  0  0
  1  2  1  0  0  0
  1  6  2  0  0  0
  1 14  1  0  0  0
  2  3  2  0  0  0
  3  4  1  0  0  0
  3  9  1  0  0  0
  4  5  2  0  0  0
  4 10  1  0  0  0
  5  6  1  0  0  0
  5 11  1  0  0  0
  6  7  1  0  0  0
  7  8  1  0  0  0
  8 12  1  0  0  0
  8 13  1  0  0  0
  8 15  1  0  0  0
 15 16  1  0  0  0
 15 20  1  0  0  0
 15 21  1  0  0  0
 16 17  2  0  0  0
 16 18  2  0  0  0
 16 19  1  0  0  0
 19 22  1  0  0  0
 19 23  1  0  0  0
 23 24  1  0  0  0
 23 25  1  0  0  0
 23 26  1  0  0  0
M  END
> <i_m_ct_stereo_status>
1

> <i_m_stars>
0

> <s_m_entry_id>
18563

> <s_m_entry_name>
Structure11785

> <s_pdb_PDB_TITLE>
P38 KINASE CRYSTAL STRUCTURE IN COMPLEX WITH SMALL MOLECULE INHIBITOR

> <s_pdb_PDB_ID>
1W7H

> <i_pdb_PDB_Model>
1

> <r_pdb_PDB_CRYST1_a>
45.771

> <r_pdb_PDB_CRYST1_b>
87.101

> <r_pdb_PDB_CRYST1_c>
126.337

> <r_pdb_PDB_CRYST1_alpha>
90

> <r_pdb_PDB_CRYST1_beta>
90

> <r_pdb_PDB_CRYST1_gamma>
90

> <s_pdb_PDB_CRYST1_Space_Group>
P 21 21 21

> <i_pdb_PDB_CRYST1_z>
4

> <s_pdb_PDB_CLASSIFICATION>
TRANSFERASE

> <s_pdb_PDB_DEPOSITION_DATE>
02-SEP-04

> <s_pdb_PDB_format_version>
3.0

> <r_pdb_PDB_RESOLUTION>
2.21

> <s_pdb_PDB_EXPDTA>
X-RAY DIFFRACTION

> <r_pdb_PDB_EXPDTA_TEMPERATURE>
100

> <r_pdb_PDB_EXPDTA_PH>
7

> <s_pdb_PDB_REMARK_350_Biomolecule_1_Transform_1_Chains>
A

> <s_pdb_PDB_REMARK_350_Biomolecule_1_Transform_1_Matrix_1>
1.000000 0.000000 0.000000   0.000000;0.000000 1.000000 0.000000   0.000000;0.000000 0.000000 1.000000   0.000000

> <s_m_Source_Path>
/scratch/alberto/systems/Trials

> <s_m_Source_File>
1w7h_prep.pdb

> <i_m_Source_File_Index>
1

> <s_m_source_file>
ReplaceWaterV2_9.maegz

> <i_m_source_file_index>
51

> <i_lp_mmshare_version>
49012

> <i_f3d_flags>
0

> <s_epik_input>
W2NIXTFbY0hdW2NIXW5bY0hdYzFPW0NIMl1bQ0gyXVMoPU8pKD1PKVtOSF1bQ0gzXQ==

> <s_epik_cmdline>
J2VwaWtfcHl0aG9uJywgJy1waCcsICc3LjAnLCAnLXRuJywgJzgnLCAnLW1hJywgJzIwMCcsICctaW1hZScsICc8aW5maWxlLm1hZT4nLCAnLW9tYWUnLCAnPG91dGZpbGUubWFlPic=

> <r_epik_Ionization_Penalty>
  0.0012

> <r_epik_Ionization_Penalty_Charging>
  0.0000

> <r_epik_Ionization_Penalty_Neutral>
  0.0012

> <r_epik_State_Penalty>
  0.0008

> <r_epik_Charging_Adjusted_Penalty>
0.000791699309245047

> <i_epik_Tot_Q>
0

> <i_epik_Tot_abs_Q>
0

> <s_lp_Force_Field>
OPLS3e

> <r_lp_Energy>
11.634329

> <b_lp_Chiralities_Consistent>
1

> <s_lp_Variant>
Core,ligand-designer_replace-H2O_50-1

> <s_m_job_name>
ReplaceWaterV2_9

> <r_lp_tautomer_probability>
1

> <i_rge_num_r_groups>
1

> <r_rge_occupation_R1>
1

> <s_rge_R1>
ligand-designer_replace-H2O_50

> <s_rge_R1_s_m_title>
ligand-designer_replace-H2O_50

> <s_rge_R1_s_m_entry_id>
25719

> <s_rge_R1_s_m_entry_name>
ligand-designer_replace-H2O.smi-ligprep.94

> <s_rge_R1_s_m_smiles>
[*]CS(=O)(=O)NC

> <s_rge_R1_s_m_Source_File>
ligand-designer_replace-H2O.maegz-dedup.maegz-names.maegz

> <i_rge_R1_i_m_Source_File_Index>
51

> <s_rge_R1_s_m_Source_Path>
/Users/konze/projects/pathfinder/r-groups/final-r-groups

> <s_rge_R1_s_canvas_Unique_SMILES_Stereo>
ClCS(=O)(=O)NC

> <i_rge_R1_i_lp_mmshare_version>
42013

> <i_rge_R1_i_f3d_flags>
0

> <i_rge_R1_i_m_stars>
0

> <s_rge_R1_s_m_subgroup_title>
ligand-designer_replace-H2O

> <s_rge_R1_s_m_subgroupid>
ligand-designer_replace-H2O.smi-ligprep111

> <b_rge_R1_b_m_subgroup_collapsed>
1

> <s_rge_R1_s_epik_input>
Q2xbQ0gyXVMoPU8pKD1PKVtOSDJd

> <s_rge_R1_s_epik_cmdline>
J2VwaWtfcHl0aG9uJywgJy1waHQnLCAnMC43JywgJy1waCcsICc3LjAnLCAnLXRuJywgJzgnLCAnLW1hJywgJzIwMCcsICctaW1hZScsICc8aW5maWxlLm1hZT4nLCAnLW9tYWUnLCAnPG91dGZpbGUubWFlPic=

> <r_rge_R1_r_epik_Ionization_Penalty>
0.0089

> <r_rge_R1_r_epik_Ionization_Penalty_Charging>
0

> <r_rge_R1_r_epik_Ionization_Penalty_Neutral>
0.0089

> <r_rge_R1_r_epik_State_Penalty>
0.0067

> <r_rge_R1_r_epik_Charging_Adjusted_Penalty>
0.00670261308122557

> <i_rge_R1_i_epik_Tot_Q>
0

> <i_rge_R1_i_epik_Tot_abs_Q>
0

> <s_rge_R1_s_lp_Force_Field>
OPLS_2005

> <r_rge_R1_r_lp_Energy>
-4.12107655397258

> <b_rge_R1_b_lp_Chiralities_Consistent>
1

> <s_rge_R1_s_lp_Variant>
Untitled_Molecule_000340-1

> <r_rge_R1_r_m_Shape_Sim>
0.316935062709055

> <s_m_subgroup_title>
ReplaceWaterV2_9-out1

> <s_m_subgroupid>
ReplaceWaterV2_9-out1

> <b_m_subgroup_collapsed>
0

$$$$
Core,ligand-designer_replace-H2O_51
                    3D
 Schrodinger Suite 2020-1.
 29 29  0  0  1  0            999 V2000
   -0.1270    4.2147    2.2993 C   0  0  0  0  0  0
   -0.4683    5.5117    2.5118 N   0  0  0  0  0  0
   -1.2702    6.1114    1.5965 C   0  0  0  0  0  0
   -1.7491    5.4544    0.4631 C   0  0  0  0  0  0
   -1.3875    4.1208    0.2631 C   0  0  0  0  0  0
   -0.5565    3.4730    1.1948 C   0  0  0  0  0  0
   -0.1338    2.1621    1.1030 O   0  0  0  0  0  0
   -0.5331    1.3815   -0.0195 C   0  0  0  0  0  0
   -1.5292    7.1429    1.7847 H   0  0  0  0  0  0
   -2.3859    5.9654   -0.2441 H   0  0  0  0  0  0
   -1.7580    3.6100   -0.6126 H   0  0  0  0  0  0
   -1.6187    1.2695   -0.0220 H   0  0  0  0  0  0
   -0.2500    1.8654   -0.9561 H   0  0  0  0  0  0
    0.5131    3.7642    3.0437 H   0  0  0  0  0  0
    0.1197   -0.0050    0.0589 C   0  0  0  0  0  0
    2.0051    0.1420   -0.0111 S   0  0  0  0  0  0
    2.3647    0.7426   -1.3009 O   0  0  0  0  0  0
    2.4685    0.7524    1.2405 O   0  0  0  0  0  0
    2.5266   -1.5540   -0.0220 N   0  0  0  0  0  0
   -0.1193   -0.5025    0.9990 H   0  0  0  0  0  0
   -0.1998   -0.6516   -0.7580 H   0  0  0  0  0  0
    3.0257   -2.1383   -1.2833 C   0  0  0  0  0  0
    2.9812   -2.1639    1.2437 C   0  0  0  0  0  0
    2.8217   -3.2423    1.2214 H   0  0  0  0  0  0
    2.4266   -1.7394    2.0809 H   0  0  0  0  0  0
    4.0384   -1.9446    1.3955 H   0  0  0  0  0  0
    2.8783   -3.2187   -1.2828 H   0  0  0  0  0  0
    4.0848   -1.9063   -1.3987 H   0  0  0  0  0  0
    2.4926   -1.7069   -2.1308 H   0  0  0  0  0  0
  1  2  1  0  0  0
  1  6  2  0  0  0
  1 14  1  0  0  0
  2  3  2  0  0  0
  3  4  1  0  0  0
  3  9  1  0  0  0
  4  5  2  0  0  0
  4 10  1  0  0  0
  5  6  1  0  0  0
  5 11  1  0  0  0
  6  7  1  0  0  0
  7  8  1  0  0  0
  8 12  1  0  0  0
  8 13  1  0  0  0
  8 15  1  0  0  0
 15 16  1  0  0  0
 15 20  1  0  0  0
 15 21  1  0  0  0
 16 17  2  0  0  0
 16 18  2  0  0  0
 16 19  1  0  0  0
 19 22  1  0  0  0
 19 23  1  0  0  0
 22 27  1  0  0  0
 22 28  1  0  0  0
 22 29  1  0  0  0
 23 24  1  0  0  0
 23 25  1  0  0  0
 23 26  1  0  0  0
M  END
> <i_m_ct_stereo_status>
1

> <i_m_stars>
0

> <s_m_entry_id>
18564

> <s_m_entry_name>
Structure11785

> <s_pdb_PDB_TITLE>
P38 KINASE CRYSTAL STRUCTURE IN COMPLEX WITH SMALL MOLECULE INHIBITOR

> <s_pdb_PDB_ID>
1W7H

> <i_pdb_PDB_Model>
1

> <r_pdb_PDB_CRYST1_a>
45.771

> <r_pdb_PDB_CRYST1_b>
87.101

> <r_pdb_PDB_CRYST1_c>
126.337

> <r_pdb_PDB_CRYST1_alpha>
90

> <r_pdb_PDB_CRYST1_beta>
90

> <r_pdb_PDB_CRYST1_gamma>
90

> <s_pdb_PDB_CRYST1_Space_Group>
P 21 21 21

> <i_pdb_PDB_CRYST1_z>
4

> <s_pdb_PDB_CLASSIFICATION>
TRANSFERASE

> <s_pdb_PDB_DEPOSITION_DATE>
02-SEP-04

> <s_pdb_PDB_format_version>
3.0

> <r_pdb_PDB_RESOLUTION>
2.21

> <s_pdb_PDB_EXPDTA>
X-RAY DIFFRACTION

> <r_pdb_PDB_EXPDTA_TEMPERATURE>
100

> <r_pdb_PDB_EXPDTA_PH>
7

> <s_pdb_PDB_REMARK_350_Biomolecule_1_Transform_1_Chains>
A

> <s_pdb_PDB_REMARK_350_Biomolecule_1_Transform_1_Matrix_1>
1.000000 0.000000 0.000000   0.000000;0.000000 1.000000 0.000000   0.000000;0.000000 0.000000 1.000000   0.000000

> <s_m_Source_Path>
/scratch/alberto/systems/Trials

> <s_m_Source_File>
1w7h_prep.pdb

> <i_m_Source_File_Index>
1

> <s_m_source_file>
ReplaceWaterV2_9.maegz

> <i_m_source_file_index>
52

> <i_lp_mmshare_version>
49012

> <i_f3d_flags>
0

> <s_epik_input>
W2NIXTFbY0hdW2NIXW5bY0hdYzFPW0NIMl1bQ0gyXVMoPU8pKD1PKU4oW0NIM10pW0NIM10=

> <s_epik_cmdline>
J2VwaWtfcHl0aG9uJywgJy1waCcsICc3LjAnLCAnLXRuJywgJzgnLCAnLW1hJywgJzIwMCcsICctaW1hZScsICc8aW5maWxlLm1hZT4nLCAnLW9tYWUnLCAnPG91dGZpbGUubWFlPic=

> <r_epik_Ionization_Penalty>
  0.0012

> <r_epik_Ionization_Penalty_Charging>
  0.0000

> <r_epik_Ionization_Penalty_Neutral>
  0.0012

> <r_epik_State_Penalty>
  0.0008

> <r_epik_Charging_Adjusted_Penalty>
0.000761463103447968

> <i_epik_Tot_Q>
0

> <i_epik_Tot_abs_Q>
0

> <s_lp_Force_Field>
OPLS3e

> <r_lp_Energy>
16.897402

> <b_lp_Chiralities_Consistent>
1

> <s_lp_Variant>
Core,ligand-designer_replace-H2O_51-1

> <s_m_job_name>
ReplaceWaterV2_9

> <r_lp_tautomer_probability>
1

> <i_rge_num_r_groups>
1

> <r_rge_occupation_R1>
1

> <s_rge_R1>
ligand-designer_replace-H2O_51

> <s_rge_R1_s_m_title>
ligand-designer_replace-H2O_51

> <s_rge_R1_s_m_entry_id>
25720

> <s_rge_R1_s_m_entry_name>
ligand-designer_replace-H2O.smi-ligprep.95

> <s_rge_R1_s_m_smiles>
[*]CS(=O)(=O)N(C)C

> <s_rge_R1_s_m_Source_File>
ligand-designer_replace-H2O.maegz-dedup.maegz-names.maegz

> <i_rge_R1_i_m_Source_File_Index>
52

> <s_rge_R1_s_m_Source_Path>
/Users/konze/projects/pathfinder/r-groups/final-r-groups

> <s_rge_R1_s_canvas_Unique_SMILES_Stereo>
ClCS(=O)(=O)N(C)C

> <i_rge_R1_i_lp_mmshare_version>
42013

> <i_rge_R1_i_f3d_flags>
0

> <i_rge_R1_i_m_stars>
0

> <s_rge_R1_s_m_subgroup_title>
ligand-designer_replace-H2O

> <s_rge_R1_s_m_subgroupid>
ligand-designer_replace-H2O.smi-ligprep111

> <b_rge_R1_b_m_subgroup_collapsed>
1

> <s_rge_R1_s_epik_input>
Q2xbQ0gyXVMoPU8pKD1PKVtOSDJd

> <s_rge_R1_s_epik_cmdline>
J2VwaWtfcHl0aG9uJywgJy1waHQnLCAnMC43JywgJy1waCcsICc3LjAnLCAnLXRuJywgJzgnLCAnLW1hJywgJzIwMCcsICctaW1hZScsICc8aW5maWxlLm1hZT4nLCAnLW9tYWUnLCAnPG91dGZpbGUubWFlPic=

> <r_rge_R1_r_epik_Ionization_Penalty>
0.0089

> <r_rge_R1_r_epik_Ionization_Penalty_Charging>
0

> <r_rge_R1_r_epik_Ionization_Penalty_Neutral>
0.0089

> <r_rge_R1_r_epik_State_Penalty>
0.0067

> <r_rge_R1_r_epik_Charging_Adjusted_Penalty>
0.00670261308122557

> <i_rge_R1_i_epik_Tot_Q>
0

> <i_rge_R1_i_epik_Tot_abs_Q>
0

> <s_rge_R1_s_lp_Force_Field>
OPLS_2005

> <r_rge_R1_r_lp_Energy>
-4.12107655397258

> <b_rge_R1_b_lp_Chiralities_Consistent>
1

> <s_rge_R1_s_lp_Variant>
Untitled_Molecule_000340-1

> <r_rge_R1_r_m_Shape_Sim>
0.316935062709055

> <s_m_subgroup_title>
ReplaceWaterV2_9-out1

> <s_m_subgroupid>
ReplaceWaterV2_9-out1

> <b_m_subgroup_collapsed>
0

$$$$
Core,ligand-designer_replace-H2O_52
                    3D
 Schrodinger Suite 2020-1.
 24 24  0  0  1  0            999 V2000
   -2.4545    2.6407   -0.0180 C   0  0  0  0  0  0
   -3.7846    2.9131    0.0016 N   0  0  0  0  0  0
   -4.6438    1.8633    0.0111 C   0  0  0  0  0  0
   -4.2171    0.5353    0.0020 C   0  0  0  0  0  0
   -2.8452    0.2761   -0.0182 C   0  0  0  0  0  0
   -1.9303    1.3446   -0.0292 C   0  0  0  0  0  0
   -0.5561    1.2115   -0.0522 O   0  0  0  0  0  0
    0.0127   -0.0942   -0.0454 C   0  0  0  0  0  0
   -5.6968    2.1032    0.0265 H   0  0  0  0  0  0
   -4.9317   -0.2746    0.0098 H   0  0  0  0  0  0
   -2.5130   -0.7510   -0.0262 H   0  0  0  0  0  0
   -0.3127   -0.6566    0.8319 H   0  0  0  0  0  0
   -0.3148   -0.6441   -0.9292 H   0  0  0  0  0  0
   -1.7948    3.4961   -0.0246 H   0  0  0  0  0  0
    1.5440    0.0056   -0.0567 C   0  0  0  0  0  0
    2.1657    0.8846    1.4987 S   0  0  0  0  0  0
    1.7895    2.2996    1.4143 O   0  0  0  0  0  0
    1.7626    0.0899    2.6636 O   0  0  0  0  0  0
    4.0410    0.7759    1.3461 C   0  0  0  0  0  0
    2.0102   -0.9786   -0.0975 H   0  0  0  0  0  0
    1.8960    0.5893   -0.9073 H   0  0  0  0  0  0
    4.4928    1.2664    2.2078 H   0  0  0  0  0  0
    4.3510    1.2743    0.4281 H   0  0  0  0  0  0
    4.3337   -0.2732    1.3187 H   0  0  0  0  0  0
  1  2  1  0  0  0
  1  6  2  0  0  0
  1 14  1  0  0  0
  2  3  2  0  0  0
  3  4  1  0  0  0
  3  9  1  0  0  0
  4  5  2  0  0  0
  4 10  1  0  0  0
  5  6  1  0  0  0
  5 11  1  0  0  0
  6  7  1  0  0  0
  7  8  1  0  0  0
  8 12  1  0  0  0
  8 13  1  0  0  0
  8 15  1  0  0  0
 15 16  1  0  0  0
 15 20  1  0  0  0
 15 21  1  0  0  0
 16 17  2  0  0  0
 16 18  2  0  0  0
 16 19  1  0  0  0
 19 22  1  0  0  0
 19 23  1  0  0  0
 19 24  1  0  0  0
M  END
> <i_m_ct_stereo_status>
1

> <i_m_stars>
0

> <s_m_entry_id>
18565

> <s_m_entry_name>
Structure11785

> <s_pdb_PDB_TITLE>
P38 KINASE CRYSTAL STRUCTURE IN COMPLEX WITH SMALL MOLECULE INHIBITOR

> <s_pdb_PDB_ID>
1W7H

> <i_pdb_PDB_Model>
1

> <r_pdb_PDB_CRYST1_a>
45.771

> <r_pdb_PDB_CRYST1_b>
87.101

> <r_pdb_PDB_CRYST1_c>
126.337

> <r_pdb_PDB_CRYST1_alpha>
90

> <r_pdb_PDB_CRYST1_beta>
90

> <r_pdb_PDB_CRYST1_gamma>
90

> <s_pdb_PDB_CRYST1_Space_Group>
P 21 21 21

> <i_pdb_PDB_CRYST1_z>
4

> <s_pdb_PDB_CLASSIFICATION>
TRANSFERASE

> <s_pdb_PDB_DEPOSITION_DATE>
02-SEP-04

> <s_pdb_PDB_format_version>
3.0

> <r_pdb_PDB_RESOLUTION>
2.21

> <s_pdb_PDB_EXPDTA>
X-RAY DIFFRACTION

> <r_pdb_PDB_EXPDTA_TEMPERATURE>
100

> <r_pdb_PDB_EXPDTA_PH>
7

> <s_pdb_PDB_REMARK_350_Biomolecule_1_Transform_1_Chains>
A

> <s_pdb_PDB_REMARK_350_Biomolecule_1_Transform_1_Matrix_1>
1.000000 0.000000 0.000000   0.000000;0.000000 1.000000 0.000000   0.000000;0.000000 0.000000 1.000000   0.000000

> <s_m_Source_Path>
/scratch/alberto/systems/Trials

> <s_m_Source_File>
1w7h_prep.pdb

> <i_m_Source_File_Index>
1

> <s_m_source_file>
ReplaceWaterV2_9.maegz

> <i_m_source_file_index>
53

> <i_lp_mmshare_version>
49012

> <i_f3d_flags>
0

> <s_epik_input>
W2NIXTFbY0hdW2NIXW5bY0hdYzFPW0NIMl1bQ0gyXVMoPU8pKD1PKVtDSDNd

> <s_epik_cmdline>
J2VwaWtfcHl0aG9uJywgJy1waCcsICc3LjAnLCAnLXRuJywgJzgnLCAnLW1hJywgJzIwMCcsICctaW1hZScsICc8aW5maWxlLm1hZT4nLCAnLW9tYWUnLCAnPG91dGZpbGUubWFlPic=

> <r_epik_Ionization_Penalty>
  0.0011

> <r_epik_Ionization_Penalty_Charging>
  0.0000

> <r_epik_Ionization_Penalty_Neutral>
  0.0011

> <r_epik_State_Penalty>
  0.0007

> <r_epik_Charging_Adjusted_Penalty>
0.00074358023120697

> <i_epik_Tot_Q>
0

> <i_epik_Tot_abs_Q>
0

> <s_lp_Force_Field>
OPLS3e

> <r_lp_Energy>
1.35636

> <b_lp_Chiralities_Consistent>
1

> <s_lp_Variant>
Core,ligand-designer_replace-H2O_52-1

> <s_m_job_name>
ReplaceWaterV2_9

> <r_lp_tautomer_probability>
1

> <i_rge_num_r_groups>
1

> <r_rge_occupation_R1>
1

> <s_rge_R1>
ligand-designer_replace-H2O_52

> <s_rge_R1_s_m_title>
ligand-designer_replace-H2O_52

> <s_rge_R1_s_m_entry_id>
25721

> <s_rge_R1_s_m_entry_name>
ligand-designer_replace-H2O.smi-ligprep.96

> <s_rge_R1_s_m_smiles>
[*]CS(=O)(=O)C

> <s_rge_R1_s_m_Source_File>
ligand-designer_replace-H2O.maegz-dedup.maegz-names.maegz

> <i_rge_R1_i_m_Source_File_Index>
53

> <s_rge_R1_s_m_Source_Path>
/Users/konze/projects/pathfinder/r-groups/final-r-groups

> <s_rge_R1_s_canvas_Unique_SMILES_Stereo>
ClCS(=O)(=O)C

> <i_rge_R1_i_lp_mmshare_version>
42013

> <i_rge_R1_i_f3d_flags>
0

> <i_rge_R1_i_m_stars>
0

> <s_rge_R1_s_m_subgroup_title>
ligand-designer_replace-H2O

> <s_rge_R1_s_m_subgroupid>
ligand-designer_replace-H2O.smi-ligprep111

> <b_rge_R1_b_m_subgroup_collapsed>
1

> <s_rge_R1_s_epik_input>
Q2xbQ0gyXVMoPU8pKD1PKVtDSDNd

> <s_rge_R1_s_epik_cmdline>
J2VwaWtfcHl0aG9uJywgJy1waHQnLCAnMC43JywgJy1waCcsICc3LjAnLCAnLXRuJywgJzgnLCAnLW1hJywgJzIwMCcsICctaW1hZScsICc8aW5maWxlLm1hZT4nLCAnLW9tYWUnLCAnPG91dGZpbGUubWFlPic=

> <r_rge_R1_r_epik_Ionization_Penalty>
0

> <r_rge_R1_r_epik_Ionization_Penalty_Charging>
0

> <r_rge_R1_r_epik_Ionization_Penalty_Neutral>
0

> <r_rge_R1_r_epik_State_Penalty>
0

> <r_rge_R1_r_epik_Charging_Adjusted_Penalty>
0

> <i_rge_R1_i_epik_Tot_Q>
0

> <i_rge_R1_i_epik_Tot_abs_Q>
0

> <s_rge_R1_s_lp_Force_Field>
OPLS_2005

> <r_rge_R1_r_lp_Energy>
-5.08942255765738

> <b_rge_R1_b_lp_Chiralities_Consistent>
1

> <s_rge_R1_s_lp_Variant>
Untitled_Molecule_000338-1

> <r_rge_R1_r_lp_tautomer_probability>
1

> <r_rge_R1_r_m_Shape_Sim>
0.47748427340454

> <s_m_subgroup_title>
ReplaceWaterV2_9-out1

> <s_m_subgroupid>
ReplaceWaterV2_9-out1

> <b_m_subgroup_collapsed>
0

$$$$
Core,ligand-designer_replace-H2O_53
                    3D
 Schrodinger Suite 2020-1.
 21 21  0  0  1  0            999 V2000
   -3.0485    0.2515   -0.0000 C   0  0  0  0  0  0
   -4.3544    0.6221    0.0000 N   0  0  0  0  0  0
   -4.6351    1.9479    0.0000 C   0  0  0  0  0  0
   -3.6472    2.9305   -0.0000 C   0  0  0  0  0  0
   -2.3109    2.5284   -0.0000 C   0  0  0  0  0  0
   -1.9686    1.1698   -0.0000 C   0  0  0  0  0  0
   -0.5981    0.9007   -0.0001 O   0  0  0  0  0  0
   -0.0307   -0.4194   -0.0001 C   0  0  0  0  0  0
   -5.6806    2.2190    0.0000 H   0  0  0  0  0  0
   -3.9091    3.9783    0.0000 H   0  0  0  0  0  0
   -1.5321    3.2771   -0.0000 H   0  0  0  0  0  0
   -0.3886   -0.9580    0.8793 H   0  0  0  0  0  0
   -0.3886   -0.9580   -0.8794 H   0  0  0  0  0  0
   -2.8869   -0.8161   -0.0000 H   0  0  0  0  0  0
    1.3901   -0.2741   -0.0001 N   0  5  0  0  0  0
    2.1974   -1.6264    0.0000 S   0  0  0  0  0  0
    2.1214   -2.4000    1.2467 O   0  0  0  0  0  0
    2.1213   -2.4002   -1.2466 O   0  0  0  0  0  0
    3.8213   -0.9782   -0.0001 N   0  0  0  0  0  0
    3.9322   -0.3408    0.7922 H   0  0  0  0  0  0
    3.9321   -0.3409   -0.7925 H   0  0  0  0  0  0
  1  2  1  0  0  0
  1  6  2  0  0  0
  1 14  1  0  0  0
  2  3  2  0  0  0
  3  4  1  0  0  0
  3  9  1  0  0  0
  4  5  2  0  0  0
  4 10  1  0  0  0
  5  6  1  0  0  0
  5 11  1  0  0  0
  6  7  1  0  0  0
  7  8  1  0  0  0
  8 12  1  0  0  0
  8 13  1  0  0  0
  8 15  1  0  0  0
 15 16  1  0  0  0
 16 17  2  0  0  0
 16 18  2  0  0  0
 16 19  1  0  0  0
 19 20  1  0  0  0
 19 21  1  0  0  0
M  CHG  1  15  -1
M  END
> <i_m_ct_stereo_status>
1

> <i_m_stars>
0

> <s_m_entry_id>
18566

> <s_m_entry_name>
Structure11785

> <s_pdb_PDB_TITLE>
P38 KINASE CRYSTAL STRUCTURE IN COMPLEX WITH SMALL MOLECULE INHIBITOR

> <s_pdb_PDB_ID>
1W7H

> <i_pdb_PDB_Model>
1

> <r_pdb_PDB_CRYST1_a>
45.771

> <r_pdb_PDB_CRYST1_b>
87.101

> <r_pdb_PDB_CRYST1_c>
126.337

> <r_pdb_PDB_CRYST1_alpha>
90

> <r_pdb_PDB_CRYST1_beta>
90

> <r_pdb_PDB_CRYST1_gamma>
90

> <s_pdb_PDB_CRYST1_Space_Group>
P 21 21 21

> <i_pdb_PDB_CRYST1_z>
4

> <s_pdb_PDB_CLASSIFICATION>
TRANSFERASE

> <s_pdb_PDB_DEPOSITION_DATE>
02-SEP-04

> <s_pdb_PDB_format_version>
3.0

> <r_pdb_PDB_RESOLUTION>
2.21

> <s_pdb_PDB_EXPDTA>
X-RAY DIFFRACTION

> <r_pdb_PDB_EXPDTA_TEMPERATURE>
100

> <r_pdb_PDB_EXPDTA_PH>
7

> <s_pdb_PDB_REMARK_350_Biomolecule_1_Transform_1_Chains>
A

> <s_pdb_PDB_REMARK_350_Biomolecule_1_Transform_1_Matrix_1>
1.000000 0.000000 0.000000   0.000000;0.000000 1.000000 0.000000   0.000000;0.000000 0.000000 1.000000   0.000000

> <s_m_Source_Path>
/scratch/alberto/systems/Trials

> <s_m_Source_File>
1w7h_prep.pdb

> <i_m_Source_File_Index>
1

> <s_m_source_file>
ReplaceWaterV2_9.maegz

> <i_m_source_file_index>
54

> <i_lp_mmshare_version>
49012

> <i_f3d_flags>
0

> <s_epik_input>
W2NIXTFbY0hdW2NIXW5bY0hdYzFPW0NIMl1bTkhdUyg9TykoPU8pW05IMl0=

> <s_epik_cmdline>
J2VwaWtfcHl0aG9uJywgJy1waCcsICc3LjAnLCAnLXRuJywgJzgnLCAnLW1hJywgJzIwMCcsICctaW1hZScsICc8aW5maWxlLm1hZT4nLCAnLW9tYWUnLCAnPG91dGZpbGUubWFlPic=

> <r_epik_Ionization_Penalty>
  0.1470

> <r_epik_Ionization_Penalty_Charging>
  0.1395

> <r_epik_Ionization_Penalty_Neutral>
  0.0076

> <r_epik_State_Penalty>
  0.1288

> <r_epik_Charging_Adjusted_Penalty>
0.268236906624674

> <i_epik_Tot_Q>
-1

> <i_epik_Tot_abs_Q>
1

> <s_lp_Force_Field>
OPLS3e

> <r_lp_Energy>
19.507047

> <b_lp_Chiralities_Consistent>
1

> <s_lp_Variant>
Core,ligand-designer_replace-H2O_53-1

> <s_m_job_name>
ReplaceWaterV2_9

> <r_lp_tautomer_probability>
1

> <s_epik_Chemistry_Notes>
This compound contains an acetal/aminal-like group ( X-CH(R)-Y where X, Y are N, S, or O) that may be acid/base labile, releasing an aldehyde.

> <i_rge_num_r_groups>
1

> <r_rge_occupation_R1>
1

> <s_rge_R1>
ligand-designer_replace-H2O_53

> <s_rge_R1_s_m_title>
ligand-designer_replace-H2O_53

> <s_rge_R1_s_m_entry_id>
25722

> <s_rge_R1_s_m_entry_name>
ligand-designer_replace-H2O.smi-ligprep.97

> <s_rge_R1_s_m_smiles>
[*]NS(=O)(=O)N

> <s_rge_R1_s_m_Source_File>
ligand-designer_replace-H2O.maegz-dedup.maegz-names.maegz

> <i_rge_R1_i_m_Source_File_Index>
54

> <s_rge_R1_s_m_Source_Path>
/Users/konze/projects/pathfinder/r-groups/final-r-groups

> <s_rge_R1_s_canvas_Unique_SMILES_Stereo>
ClNS(=O)(=O)N

> <i_rge_R1_i_lp_mmshare_version>
42013

> <i_rge_R1_i_f3d_flags>
0

> <i_rge_R1_i_m_stars>
0

> <s_rge_R1_s_m_subgroup_title>
ligand-designer_replace-H2O

> <s_rge_R1_s_m_subgroupid>
ligand-designer_replace-H2O.smi-ligprep111

> <b_rge_R1_b_m_subgroup_collapsed>
1

> <s_rge_R1_s_epik_input>
Q2xbTkhdUyg9TykoPU8pW05IMl0=

> <s_rge_R1_s_epik_cmdline>
J2VwaWtfcHl0aG9uJywgJy1waHQnLCAnMC43JywgJy1waCcsICc3LjAnLCAnLXRuJywgJzgnLCAnLW1hJywgJzIwMCcsICctaW1hZScsICc8aW5maWxlLm1hZT4nLCAnLW9tYWUnLCAnPG91dGZpbGUubWFlPic=

> <r_rge_R1_r_epik_Ionization_Penalty>
0.0267

> <r_rge_R1_r_epik_Ionization_Penalty_Charging>
0.0001

> <r_rge_R1_r_epik_Ionization_Penalty_Neutral>
0.0266

> <r_rge_R1_r_epik_State_Penalty>
0.0076

> <r_rge_R1_r_epik_Charging_Adjusted_Penalty>
0.00770392777174284

> <i_rge_R1_i_epik_Tot_Q>
-1

> <i_rge_R1_i_epik_Tot_abs_Q>
1

> <s_rge_R1_s_lp_Force_Field>
OPLS_2005

> <r_rge_R1_r_lp_Energy>
-1.81093836820584

> <b_rge_R1_b_lp_Chiralities_Consistent>
1

> <s_rge_R1_s_lp_Variant>
Untitled_Molecule_000343-1

> <r_rge_R1_r_m_Shape_Sim>
0

> <s_m_subgroup_title>
ReplaceWaterV2_9-out1

> <s_m_subgroupid>
ReplaceWaterV2_9-out1

> <b_m_subgroup_collapsed>
0

$$$$
Core,ligand-designer_replace-H2O_53
                    3D
 Schrodinger Suite 2020-1.
 22 22  0  0  1  0            999 V2000
   -2.4041    2.6579   -0.0031 C   0  0  0  0  0  0
   -3.7229    2.9778   -0.0509 N   0  0  0  0  0  0
   -4.6192    1.9597   -0.0715 C   0  0  0  0  0  0
   -4.2413    0.6172   -0.0445 C   0  0  0  0  0  0
   -2.8805    0.3088    0.0041 C   0  0  0  0  0  0
   -1.9276    1.3436    0.0251 C   0  0  0  0  0  0
   -0.5602    1.1593    0.0711 O   0  0  0  0  0  0
   -0.0531   -0.1687    0.0969 C   0  0  0  0  0  0
   -5.6623    2.2373   -0.1103 H   0  0  0  0  0  0
   -4.9840   -0.1668   -0.0611 H   0  0  0  0  0  0
   -2.5855   -0.7296    0.0246 H   0  0  0  0  0  0
   -0.4164   -0.6926    0.9824 H   0  0  0  0  0  0
   -0.3633   -0.7087   -0.7993 H   0  0  0  0  0  0
   -1.7152    3.4896    0.0121 H   0  0  0  0  0  0
    1.4164   -0.1344    0.1454 N   0  0  2  0  0  0
    2.2378   -1.6815    0.0097 S   0  0  0  0  0  0
    2.0541   -2.3915    1.2796 O   0  0  0  0  0  0
    1.8362   -2.2947   -1.2607 O   0  0  0  0  0  0
    3.9223   -1.2174   -0.1137 N   0  0  0  0  0  0
    4.3423   -0.8283    0.7346 H   0  0  0  0  0  0
    4.1947   -0.7575   -0.9865 H   0  0  0  0  0  0
    1.7514    0.4177    0.9394 H   0  0  0  0  0  0
  1  2  1  0  0  0
  1  6  2  0  0  0
  1 14  1  0  0  0
  2  3  2  0  0  0
  3  4  1  0  0  0
  3  9  1  0  0  0
  4  5  2  0  0  0
  4 10  1  0  0  0
  5  6  1  0  0  0
  5 11  1  0  0  0
  6  7  1  0  0  0
  7  8  1  0  0  0
  8 12  1  0  0  0
  8 13  1  0  0  0
  8 15  1  0  0  0
 15 16  1  0  0  0
 15 22  1  0  0  0
 16 17  2  0  0  0
 16 18  2  0  0  0
 16 19  1  0  0  0
 19 20  1  0  0  0
 19 21  1  0  0  0
M  END
> <i_m_ct_stereo_status>
1

> <i_m_stars>
0

> <s_m_entry_id>
18567

> <s_m_entry_name>
Structure11785

> <s_pdb_PDB_TITLE>
P38 KINASE CRYSTAL STRUCTURE IN COMPLEX WITH SMALL MOLECULE INHIBITOR

> <s_pdb_PDB_ID>
1W7H

> <i_pdb_PDB_Model>
1

> <r_pdb_PDB_CRYST1_a>
45.771

> <r_pdb_PDB_CRYST1_b>
87.101

> <r_pdb_PDB_CRYST1_c>
126.337

> <r_pdb_PDB_CRYST1_alpha>
90

> <r_pdb_PDB_CRYST1_beta>
90

> <r_pdb_PDB_CRYST1_gamma>
90

> <s_pdb_PDB_CRYST1_Space_Group>
P 21 21 21

> <i_pdb_PDB_CRYST1_z>
4

> <s_pdb_PDB_CLASSIFICATION>
TRANSFERASE

> <s_pdb_PDB_DEPOSITION_DATE>
02-SEP-04

> <s_pdb_PDB_format_version>
3.0

> <r_pdb_PDB_RESOLUTION>
2.21

> <s_pdb_PDB_EXPDTA>
X-RAY DIFFRACTION

> <r_pdb_PDB_EXPDTA_TEMPERATURE>
100

> <r_pdb_PDB_EXPDTA_PH>
7

> <s_pdb_PDB_REMARK_350_Biomolecule_1_Transform_1_Chains>
A

> <s_pdb_PDB_REMARK_350_Biomolecule_1_Transform_1_Matrix_1>
1.000000 0.000000 0.000000   0.000000;0.000000 1.000000 0.000000   0.000000;0.000000 0.000000 1.000000   0.000000

> <s_m_Source_Path>
/scratch/alberto/systems/Trials

> <s_m_Source_File>
1w7h_prep.pdb

> <i_m_Source_File_Index>
1

> <s_m_source_file>
ReplaceWaterV2_9.maegz

> <i_m_source_file_index>
54

> <i_lp_mmshare_version>
49012

> <i_f3d_flags>
0

> <s_epik_input>
W2NIXTFbY0hdW2NIXW5bY0hdYzFPW0NIMl1bTkhdUyg9TykoPU8pW05IMl0=

> <s_epik_cmdline>
J2VwaWtfcHl0aG9uJywgJy1waCcsICc3LjAnLCAnLXRuJywgJzgnLCAnLW1hJywgJzIwMCcsICctaW1hZScsICc8aW5maWxlLm1hZT4nLCAnLW9tYWUnLCAnPG91dGZpbGUubWFlPic=

> <r_epik_Ionization_Penalty>
  0.9375

> <r_epik_Ionization_Penalty_Charging>
  0.0000

> <r_epik_Ionization_Penalty_Neutral>
  0.9375

> <r_epik_State_Penalty>
  0.9675

> <r_epik_Charging_Adjusted_Penalty>
0.967485500590003

> <i_epik_Tot_Q>
0

> <i_epik_Tot_abs_Q>
0

> <s_lp_Force_Field>
OPLS3e

> <r_lp_Energy>
16.611735

> <b_lp_Chiralities_Consistent>
1

> <s_lp_Variant>
Core,ligand-designer_replace-H2O_53-2

> <s_m_job_name>
ReplaceWaterV2_9

> <r_lp_tautomer_probability>
1

> <s_epik_Chemistry_Notes>
This compound contains an acetal/aminal-like group ( X-CH(R)-Y where X, Y are N, S, or O) that may be acid/base labile, releasing an aldehyde.

> <i_rge_num_r_groups>
1

> <r_rge_occupation_R1>
1

> <s_rge_R1>
ligand-designer_replace-H2O_53

> <s_rge_R1_s_m_title>
ligand-designer_replace-H2O_53

> <s_rge_R1_s_m_entry_id>
25722

> <s_rge_R1_s_m_entry_name>
ligand-designer_replace-H2O.smi-ligprep.97

> <s_rge_R1_s_m_smiles>
[*]NS(=O)(=O)N

> <s_rge_R1_s_m_Source_File>
ligand-designer_replace-H2O.maegz-dedup.maegz-names.maegz

> <i_rge_R1_i_m_Source_File_Index>
54

> <s_rge_R1_s_m_Source_Path>
/Users/konze/projects/pathfinder/r-groups/final-r-groups

> <s_rge_R1_s_canvas_Unique_SMILES_Stereo>
ClNS(=O)(=O)N

> <i_rge_R1_i_lp_mmshare_version>
42013

> <i_rge_R1_i_f3d_flags>
0

> <i_rge_R1_i_m_stars>
0

> <s_rge_R1_s_m_subgroup_title>
ligand-designer_replace-H2O

> <s_rge_R1_s_m_subgroupid>
ligand-designer_replace-H2O.smi-ligprep111

> <b_rge_R1_b_m_subgroup_collapsed>
1

> <s_rge_R1_s_epik_input>
Q2xbTkhdUyg9TykoPU8pW05IMl0=

> <s_rge_R1_s_epik_cmdline>
J2VwaWtfcHl0aG9uJywgJy1waHQnLCAnMC43JywgJy1waCcsICc3LjAnLCAnLXRuJywgJzgnLCAnLW1hJywgJzIwMCcsICctaW1hZScsICc8aW5maWxlLm1hZT4nLCAnLW9tYWUnLCAnPG91dGZpbGUubWFlPic=

> <r_rge_R1_r_epik_Ionization_Penalty>
0.0267

> <r_rge_R1_r_epik_Ionization_Penalty_Charging>
0.0001

> <r_rge_R1_r_epik_Ionization_Penalty_Neutral>
0.0266

> <r_rge_R1_r_epik_State_Penalty>
0.0076

> <r_rge_R1_r_epik_Charging_Adjusted_Penalty>
0.00770392777174284

> <i_rge_R1_i_epik_Tot_Q>
-1

> <i_rge_R1_i_epik_Tot_abs_Q>
1

> <s_rge_R1_s_lp_Force_Field>
OPLS_2005

> <r_rge_R1_r_lp_Energy>
-1.81093836820584

> <b_rge_R1_b_lp_Chiralities_Consistent>
1

> <s_rge_R1_s_lp_Variant>
Untitled_Molecule_000343-1

> <r_rge_R1_r_m_Shape_Sim>
0

> <s_m_subgroup_title>
ReplaceWaterV2_9-out1

> <s_m_subgroupid>
ReplaceWaterV2_9-out1

> <b_m_subgroup_collapsed>
0

$$$$
